AlkEthOH_c312
  -OEChem-01311918033D

 20 19  0     0  0  0  0  0  0999 V2000
    0.4982   -0.7977    0.5591 C   0  0  0  0  0  0  0  0  0  0  0  0
    0.2505    0.5371    2.6617 C   0  0  0  0  0  0  0  0  0  0  0  0
    1.2229   -2.3967    3.1592 C   0  0  0  0  0  0  0  0  0  0  0  0
    3.2043   -1.8465    1.7326 C   0  0  0  0  0  0  0  0  0  0  0  0
    1.2399   -0.2158    1.7657 C   0  0  0  0  0  0  0  0  0  0  0  0
    2.0620   -1.2598    2.5689 C   0  0  0  0  0  0  0  0  0  0  0  0
   -0.2509   -1.5367    0.8595 H   0  0  0  0  0  0  0  0  0  0  0  0
   -0.0241   -0.0041    0.0129 H   0  0  0  0  0  0  0  0  0  0  0  0
    1.1876   -1.2725   -0.1449 H   0  0  0  0  0  0  0  0  0  0  0  0
   -0.5522   -0.1143    3.0209 H   0  0  0  0  0  0  0  0  0  0  0  0
    0.7593    0.9675    3.5305 H   0  0  0  0  0  0  0  0  0  0  0  0
   -0.2162    1.3607    2.1101 H   0  0  0  0  0  0  0  0  0  0  0  0
    0.7462   -2.9980    2.3791 H   0  0  0  0  0  0  0  0  0  0  0  0
    1.8539   -3.0685    3.7521 H   0  0  0  0  0  0  0  0  0  0  0  0
    0.4435   -2.0162    3.8256 H   0  0  0  0  0  0  0  0  0  0  0  0
    2.8322   -2.4704    0.9140 H   0  0  0  0  0  0  0  0  0  0  0  0
    3.8528   -2.4729    2.3550 H   0  0  0  0  0  0  0  0  0  0  0  0
    3.8239   -1.0514    1.3051 H   0  0  0  0  0  0  0  0  0  0  0  0
    1.9481    0.5312    1.3815 H   0  0  0  0  0  0  0  0  0  0  0  0
    2.5280   -0.7301    3.4110 H   0  0  0  0  0  0  0  0  0  0  0  0
  1  5  1  0  0  0  0
  2  5  1  0  0  0  0
  3  6  1  0  0  0  0
  4  6  1  0  0  0  0
  5  6  1  0  0  0  0
  1  7  1  0  0  0  0
  1  8  1  0  0  0  0
  1  9  1  0  0  0  0
  2 10  1  0  0  0  0
  2 11  1  0  0  0  0
  2 12  1  0  0  0  0
  3 13  1  0  0  0  0
  3 14  1  0  0  0  0
  3 15  1  0  0  0  0
  4 16  1  0  0  0  0
  4 17  1  0  0  0  0
  4 18  1  0  0  0  0
  5 19  1  0  0  0  0
  6 20  1  0  0  0  0
M  END
> <MM Szybki Single Point Energy>
6.850269178483

> <MM Szybki SD Energy>
6.409086560387

$$$$
AlkEthOH_c312
  -OEChem-01311918033D

 20 19  0     0  0  0  0  0  0999 V2000
    0.5527   -0.7676    0.5493 C   0  0  0  0  0  0  0  0  0  0  0  0
    0.1892    0.5293    2.6589 C   0  0  0  0  0  0  0  0  0  0  0  0
    2.8536   -0.6755    3.7122 C   0  0  0  0  0  0  0  0  0  0  0  0
    1.1901   -2.4394    3.0907 C   0  0  0  0  0  0  0  0  0  0  0  0
    1.2289   -0.1961    1.8000 C   0  0  0  0  0  0  0  0  0  0  0  0
    2.0388   -1.2790    2.5632 C   0  0  0  0  0  0  0  0  0  0  0  0
   -0.2603   -1.4550    0.8039 H   0  0  0  0  0  0  0  0  0  0  0  0
    0.1238    0.0382   -0.0565 H   0  0  0  0  0  0  0  0  0  0  0  0
    1.2742   -1.3037   -0.0758 H   0  0  0  0  0  0  0  0  0  0  0  0
   -0.5738   -0.1562    3.0400 H   0  0  0  0  0  0  0  0  0  0  0  0
    0.6548    1.0342    3.5103 H   0  0  0  0  0  0  0  0  0  0  0  0
   -0.3233    1.2985    2.0703 H   0  0  0  0  0  0  0  0  0  0  0  0
    2.2117   -0.3245    4.5264 H   0  0  0  0  0  0  0  0  0  0  0  0
    3.5366   -1.4227    4.1312 H   0  0  0  0  0  0  0  0  0  0  0  0
    3.4588    0.1673    3.3627 H   0  0  0  0  0  0  0  0  0  0  0  0
    0.4440   -2.1012    3.8160 H   0  0  0  0  0  0  0  0  0  0  0  0
    1.8242   -3.1799    3.5912 H   0  0  0  0  0  0  0  0  0  0  0  0
    0.6714   -2.9576    2.2789 H   0  0  0  0  0  0  0  0  0  0  0  0
    1.9460    0.5606    1.4531 H   0  0  0  0  0  0  0  0  0  0  0  0
    2.7615   -1.7039    1.8530 H   0  0  0  0  0  0  0  0  0  0  0  0
  1  5  1  0  0  0  0
  2  5  1  0  0  0  0
  3  6  1  0  0  0  0
  4  6  1  0  0  0  0
  5  6  1  0  0  0  0
  1  7  1  0  0  0  0
  1  8  1  0  0  0  0
  1  9  1  0  0  0  0
  2 10  1  0  0  0  0
  2 11  1  0  0  0  0
  2 12  1  0  0  0  0
  3 13  1  0  0  0  0
  3 14  1  0  0  0  0
  3 15  1  0  0  0  0
  4 16  1  0  0  0  0
  4 17  1  0  0  0  0
  4 18  1  0  0  0  0
  5 19  1  0  0  0  0
  6 20  1  0  0  0  0
M  END
> <MM Szybki Single Point Energy>
7.942170901512

> <MM Szybki SD Energy>
6.436079141647

$$$$
AlkEthOH_c312
  -OEChem-01311918033D

 20 19  0     0  0  0  0  0  0999 V2000
    0.4314   -0.8355    0.5973 C   0  0  0  0  0  0  0  0  0  0  0  0
    0.3414    0.6149    2.6199 C   0  0  0  0  0  0  0  0  0  0  0  0
    2.8544   -2.2416    1.6575 C   0  0  0  0  0  0  0  0  0  0  0  0
    2.9862   -0.6525    3.5707 C   0  0  0  0  0  0  0  0  0  0  0  0
    1.2670   -0.2225    1.7276 C   0  0  0  0  0  0  0  0  0  0  0  0
    2.0402   -1.2945    2.5472 C   0  0  0  0  0  0  0  0  0  0  0  0
   -0.2498   -1.6032    0.9787 H   0  0  0  0  0  0  0  0  0  0  0  0
   -0.1692   -0.0688    0.0953 H   0  0  0  0  0  0  0  0  0  0  0  0
    1.0688   -1.2879   -0.1688 H   0  0  0  0  0  0  0  0  0  0  0  0
   -0.3730   -0.0206    3.1542 H   0  0  0  0  0  0  0  0  0  0  0  0
    0.9052    1.1928    3.3576 H   0  0  0  0  0  0  0  0  0  0  0  0
   -0.2298    1.3341    2.0223 H   0  0  0  0  0  0  0  0  0  0  0  0
    3.5328   -1.6854    1.0022 H   0  0  0  0  0  0  0  0  0  0  0  0
    3.4561   -2.9273    2.2644 H   0  0  0  0  0  0  0  0  0  0  0  0
    2.2024   -2.8617    1.0346 H   0  0  0  0  0  0  0  0  0  0  0  0
    3.7010    0.0178    3.0814 H   0  0  0  0  0  0  0  0  0  0  0  0
    3.5567   -1.4183    4.1078 H   0  0  0  0  0  0  0  0  0  0  0  0
    2.4381   -0.0791    4.3237 H   0  0  0  0  0  0  0  0  0  0  0  0
    1.9935    0.4597    1.2670 H   0  0  0  0  0  0  0  0  0  0  0  0
    1.3147   -1.9052    3.1005 H   0  0  0  0  0  0  0  0  0  0  0  0
  1  5  1  0  0  0  0
  2  5  1  0  0  0  0
  3  6  1  0  0  0  0
  4  6  1  0  0  0  0
  5  6  1  0  0  0  0
  1  7  1  0  0  0  0
  1  8  1  0  0  0  0
  1  9  1  0  0  0  0
  2 10  1  0  0  0  0
  2 11  1  0  0  0  0
  2 12  1  0  0  0  0
  3 13  1  0  0  0  0
  3 14  1  0  0  0  0
  3 15  1  0  0  0  0
  4 16  1  0  0  0  0
  4 17  1  0  0  0  0
  4 18  1  0  0  0  0
  5 19  1  0  0  0  0
  6 20  1  0  0  0  0
M  END
> <MM Szybki Single Point Energy>
7.977598597311

> <MM Szybki SD Energy>
6.736580988585

$$$$
AlkEthOH_c1008
  -OEChem-01311918033D

 14 13  0     0  0  0  0  0  0999 V2000
    0.4020   -0.7274    0.7094 C   0  0  0  0  0  0  0  0  0  0  0  0
    2.5434    1.6212    2.9184 C   0  0  0  0  0  0  0  0  0  0  0  0
    1.6360   -0.1809    1.4096 C   0  0  0  0  0  0  0  0  0  0  0  0
    1.3154    1.0866    2.1991 C   0  0  0  0  0  0  0  0  0  0  0  0
   -0.0135    0.0088    0.0139 H   0  0  0  0  0  0  0  0  0  0  0  0
    0.6561   -1.6272    0.1405 H   0  0  0  0  0  0  0  0  0  0  0  0
   -0.3744   -0.9922    1.4342 H   0  0  0  0  0  0  0  0  0  0  0  0
    2.9450    0.8780    3.6147 H   0  0  0  0  0  0  0  0  0  0  0  0
    2.2869    2.5184    3.4903 H   0  0  0  0  0  0  0  0  0  0  0  0
    3.3312    1.8859    2.2059 H   0  0  0  0  0  0  0  0  0  0  0  0
    2.0363   -0.9484    2.0824 H   0  0  0  0  0  0  0  0  0  0  0  0
    2.4100    0.0313    0.6629 H   0  0  0  0  0  0  0  0  0  0  0  0
    0.9298    1.8588    1.5230 H   0  0  0  0  0  0  0  0  0  0  0  0
    0.5300    0.8786    2.9349 H   0  0  0  0  0  0  0  0  0  0  0  0
  1  3  1  0  0  0  0
  2  4  1  0  0  0  0
  3  4  1  0  0  0  0
  1  5  1  0  0  0  0
  1  6  1  0  0  0  0
  1  7  1  0  0  0  0
  2  8  1  0  0  0  0
  2  9  1  0  0  0  0
  2 10  1  0  0  0  0
  3 11  1  0  0  0  0
  3 12  1  0  0  0  0
  4 13  1  0  0  0  0
  4 14  1  0  0  0  0
M  END
> <MM Szybki Single Point Energy>
-5.042744852431

> <MM Szybki SD Energy>
-5.069941620715

$$$$
AlkEthOH_c1008
  -OEChem-01311918033D

 14 13  0     0  0  0  0  0  0999 V2000
    0.4054   -0.7861    0.7011 C   0  0  0  0  0  0  0  0  0  0  0  0
    0.8210    2.2481    1.3076 C   0  0  0  0  0  0  0  0  0  0  0  0
    1.6177   -0.1733    1.3852 C   0  0  0  0  0  0  0  0  0  0  0  0
    1.2948    1.0939    2.1776 C   0  0  0  0  0  0  0  0  0  0  0  0
   -0.0013   -0.1216   -0.0668 H   0  0  0  0  0  0  0  0  0  0  0  0
    0.6850   -1.7248    0.2120 H   0  0  0  0  0  0  0  0  0  0  0  0
   -0.3857   -1.0041    1.4254 H   0  0  0  0  0  0  0  0  0  0  0  0
    1.5479    2.4712    0.5204 H   0  0  0  0  0  0  0  0  0  0  0  0
    0.6931    3.1492    1.9160 H   0  0  0  0  0  0  0  0  0  0  0  0
   -0.1419    2.0272    0.8378 H   0  0  0  0  0  0  0  0  0  0  0  0
    2.0425   -0.9149    2.0723 H   0  0  0  0  0  0  0  0  0  0  0  0
    2.3882    0.0423    0.6359 H   0  0  0  0  0  0  0  0  0  0  0  0
    0.5360    0.8755    2.9379 H   0  0  0  0  0  0  0  0  0  0  0  0
    2.1986    1.4090    2.7129 H   0  0  0  0  0  0  0  0  0  0  0  0
  1  3  1  0  0  0  0
  2  4  1  0  0  0  0
  3  4  1  0  0  0  0
  1  5  1  0  0  0  0
  1  6  1  0  0  0  0
  1  7  1  0  0  0  0
  2  8  1  0  0  0  0
  2  9  1  0  0  0  0
  2 10  1  0  0  0  0
  3 11  1  0  0  0  0
  3 12  1  0  0  0  0
  4 13  1  0  0  0  0
  4 14  1  0  0  0  0
M  END
> <MM Szybki Single Point Energy>
-3.134229093462

> <MM Szybki SD Energy>
-4.289929710088

$$$$
AlkEthOH_c1008
  -OEChem-01311918033D

 14 13  0     0  0  0  0  0  0999 V2000
    0.4216   -0.7655    0.6578 C   0  0  0  0  0  0  0  0  0  0  0  0
    0.2496    0.8834    3.2933 C   0  0  0  0  0  0  0  0  0  0  0  0
    1.6069   -0.1960    1.4221 C   0  0  0  0  0  0  0  0  0  0  0  0
    1.2786    1.0839    2.1914 C   0  0  0  0  0  0  0  0  0  0  0  0
   -0.0110   -0.0164   -0.0127 H   0  0  0  0  0  0  0  0  0  0  0  0
    0.7407   -1.6194    0.0516 H   0  0  0  0  0  0  0  0  0  0  0  0
   -0.3612   -1.1166    1.3367 H   0  0  0  0  0  0  0  0  0  0  0  0
   -0.7260    0.6038    2.8849 H   0  0  0  0  0  0  0  0  0  0  0  0
    0.1178    1.8123    3.8574 H   0  0  0  0  0  0  0  0  0  0  0  0
    0.5691    0.1045    3.9926 H   0  0  0  0  0  0  0  0  0  0  0  0
    1.9947   -0.9558    2.1105 H   0  0  0  0  0  0  0  0  0  0  0  0
    2.4097    0.0240    0.7081 H   0  0  0  0  0  0  0  0  0  0  0  0
    2.2027    1.4659    2.6417 H   0  0  0  0  0  0  0  0  0  0  0  0
    0.9226    1.8541    1.4975 H   0  0  0  0  0  0  0  0  0  0  0  0
  1  3  1  0  0  0  0
  2  4  1  0  0  0  0
  3  4  1  0  0  0  0
  1  5  1  0  0  0  0
  1  6  1  0  0  0  0
  1  7  1  0  0  0  0
  2  8  1  0  0  0  0
  2  9  1  0  0  0  0
  2 10  1  0  0  0  0
  3 11  1  0  0  0  0
  3 12  1  0  0  0  0
  4 13  1  0  0  0  0
  4 14  1  0  0  0  0
M  END
> <MM Szybki Single Point Energy>
-2.775653954593

> <MM Szybki SD Energy>
-4.286880060522

$$$$
