AlkEthOH_c1178
  -OEChem-04101909463D

 28 27  0     0  0  0  0  0  0999 V2000
    0.7222    0.9268   -3.2410 C   0  0  0  0  0  0  0  0  0  0  0  0
   -0.3585   -1.1398    2.3933 C   0  0  0  0  0  0  0  0  0  0  0  0
    1.3525   -1.5800    0.6124 C   0  0  0  0  0  0  0  0  0  0  0  0
   -1.6622   -1.0002   -0.2571 C   0  0  0  0  0  0  0  0  0  0  0  0
   -1.2230    1.3286    0.5897 C   0  0  0  0  0  0  0  0  0  0  0  0
   -0.2327    1.0664   -2.0664 C   0  0  0  0  0  0  0  0  0  0  0  0
    0.3912   -0.5384    1.1966 C   0  0  0  0  0  0  0  0  0  0  0  0
   -0.5783    0.0219    0.1118 C   0  0  0  0  0  0  0  0  0  0  0  0
    1.1453    0.5987    1.6419 O   0  0  0  0  0  0  0  0  0  0  0  0
    0.2742    0.2393   -1.0291 O   0  0  0  0  0  0  0  0  0  0  0  0
    1.7379    1.2254   -2.9369 H   0  0  0  0  0  0  0  0  0  0  0  0
    0.7557   -0.1200   -3.5823 H   0  0  0  0  0  0  0  0  0  0  0  0
    0.4012    1.5658   -4.0802 H   0  0  0  0  0  0  0  0  0  0  0  0
   -1.0729   -0.4233    2.8279 H   0  0  0  0  0  0  0  0  0  0  0  0
   -0.8941   -2.0647    2.1264 H   0  0  0  0  0  0  0  0  0  0  0  0
    0.3753   -1.3965    3.1777 H   0  0  0  0  0  0  0  0  0  0  0  0
    1.9646   -1.1213   -0.1747 H   0  0  0  0  0  0  0  0  0  0  0  0
    2.0117   -1.9532    1.4176 H   0  0  0  0  0  0  0  0  0  0  0  0
    0.8190   -2.4480    0.1929 H   0  0  0  0  0  0  0  0  0  0  0  0
   -1.2198   -1.9688   -0.5389 H   0  0  0  0  0  0  0  0  0  0  0  0
   -2.3679   -1.1565    0.5743 H   0  0  0  0  0  0  0  0  0  0  0  0
   -2.2460   -0.6319   -1.1163 H   0  0  0  0  0  0  0  0  0  0  0  0
   -0.4572    2.1062    0.7179 H   0  0  0  0  0  0  0  0  0  0  0  0
   -1.9821    1.6718   -0.1319 H   0  0  0  0  0  0  0  0  0  0  0  0
   -1.7297    1.1777    1.5554 H   0  0  0  0  0  0  0  0  0  0  0  0
   -1.2540    0.7606   -2.3704 H   0  0  0  0  0  0  0  0  0  0  0  0
   -0.2849    2.1238   -1.7429 H   0  0  0  0  0  0  0  0  0  0  0  0
    1.8311    0.2443    2.2267 H   0  0  0  0  0  0  0  0  0  0  0  0
  1  6  1  0  0  0  0
  2  7  1  0  0  0  0
  3  7  1  0  0  0  0
  4  8  1  0  0  0  0
  5  8  1  0  0  0  0
  6 10  1  0  0  0  0
  7  8  1  0  0  0  0
  7  9  1  0  0  0  0
  8 10  1  0  0  0  0
  1 11  1  0  0  0  0
  1 12  1  0  0  0  0
  1 13  1  0  0  0  0
  2 14  1  0  0  0  0
  2 15  1  0  0  0  0
  2 16  1  0  0  0  0
  3 17  1  0  0  0  0
  3 18  1  0  0  0  0
  3 19  1  0  0  0  0
  4 20  1  0  0  0  0
  4 21  1  0  0  0  0
  4 22  1  0  0  0  0
  5 23  1  0  0  0  0
  5 24  1  0  0  0  0
  5 25  1  0  0  0  0
  6 26  1  0  0  0  0
  6 27  1  0  0  0  0
  9 28  1  0  0  0  0
M  END
> <MM Szybki Single Point Energy>
40.999469908315

> <MM Szybki SD Energy>
40.670910234773

> <QM Psi4 Opt. Runtime (sec) mp2/cc-pVDZ>
6634.27

> <QM Psi4 Final Opt. Energy (Har) mp2/cc-pVDZ>
-464.7007779882608

> <QM Psi4 Final SCS-Opt. Energy (Har) mp2/cc-pVDZ>
-464.6849002765402

> <Original omega conformer number>
2

> <QM Psi4 Opt. Steps mp2/cc-pVDZ>
26

> <QM Psi4 Initial Opt. Energy (Har) mp2/cc-pVDZ>
-464.693843823086

$$$$
Div_2
  -OEChem-04101909463D

 16 15  0     0  0  0  0  0  0999 V2000
   -2.4452   -0.0422   -1.0737 C   0  0  0  0  0  0  0  0  0  0  0  0
    2.2637   -0.0607    1.1025 C   0  0  0  0  0  0  0  0  0  0  0  0
   -0.9717    0.5188   -1.0347 C   0  0  0  0  0  0  0  0  0  0  0  0
    1.3159    0.4947    0.0541 C   0  0  0  0  0  0  0  0  0  0  0  0
   -0.0958   -0.0872    0.0586 C   0  0  0  0  0  0  0  0  0  0  0  0
   -3.1590    0.4511   -1.9831 O   0  5  0  0  0  0  0  0  0  0  0  0
   -2.7121   -0.9045   -0.1938 O   0  0  0  0  0  0  0  0  0  0  0  0
    2.0185   -0.9186    1.9182 O   0  0  0  0  0  0  0  0  0  0  0  0
    3.5239    0.5049    1.0770 O   0  0  0  0  0  0  0  0  0  0  0  0
   -1.0291    1.6202   -0.9161 H   0  0  0  0  0  0  0  0  0  0  0  0
   -0.5159    0.3519   -2.0319 H   0  0  0  0  0  0  0  0  0  0  0  0
    1.7930    0.3386   -0.9351 H   0  0  0  0  0  0  0  0  0  0  0  0
    1.2785    1.5948    0.1914 H   0  0  0  0  0  0  0  0  0  0  0  0
   -0.0522   -1.1816   -0.0657 H   0  0  0  0  0  0  0  0  0  0  0  0
   -0.5676    0.0738    1.0416 H   0  0  0  0  0  0  0  0  0  0  0  0
    3.5135    1.1598    0.3638 H   0  0  0  0  0  0  0  0  0  0  0  0
  1  3  1  0  0  0  0
  1  6  1  0  0  0  0
  1  7  2  0  0  0  0
  2  4  1  0  0  0  0
  2  8  2  0  0  0  0
  2  9  1  0  0  0  0
  3  5  1  0  0  0  0
  4  5  1  0  0  0  0
  3 10  1  0  0  0  0
  3 11  1  0  0  0  0
  4 12  1  0  0  0  0
  4 13  1  0  0  0  0
  5 14  1  0  0  0  0
  5 15  1  0  0  0  0
  9 16  1  0  0  0  0
M  CHG  1   6  -1
M  END
> <MM Szybki Single Point Energy>
-103.795450418940

> <MM Szybki SD Energy>
-105.269467775915

> <QM Psi4 Opt. Runtime (sec) mp2/cc-pVDZ>
610.5699999999999

> <QM Psi4 Final Opt. Energy (Har) mp2/cc-pVDZ>
-494.3619879282856

> <QM Psi4 Final SCS-Opt. Energy (Har) mp2/cc-pVDZ>
-494.31894790718184

> <Original omega conformer number>
2

> <QM Psi4 Opt. Steps mp2/cc-pVDZ>
10

> <QM Psi4 Initial Opt. Energy (Har) mp2/cc-pVDZ>
-494.356540851168

$$$$
Div_6
  -OEChem-04101909463D

 13 12  0     0  0  0  0  0  0999 V2000
    0.3120   -2.1210    0.7209 C   0  0  0  0  0  0  0  0  0  0  0  0
   -0.4936   -0.0737   -1.7199 C   0  0  0  0  0  0  0  0  0  0  0  0
    0.9040   -0.7910    0.5704 N   0  0  0  0  0  0  0  0  0  0  0  0
    0.7869    1.6180   -0.1538 O   0  0  0  0  0  0  0  0  0  0  0  0
   -1.3241    0.4027    0.7317 O   0  0  0  0  0  0  0  0  0  0  0  0
   -0.0755    0.4312   -0.0479 S   0  0  0  0  0  0  0  0  0  0  0  0
   -0.6574   -2.0035    1.2260 H   0  0  0  0  0  0  0  0  0  0  0  0
    0.9682   -2.7241    1.3662 H   0  0  0  0  0  0  0  0  0  0  0  0
    0.1605   -2.6615   -0.2334 H   0  0  0  0  0  0  0  0  0  0  0  0
   -1.1498    0.7102   -2.1264 H   0  0  0  0  0  0  0  0  0  0  0  0
    0.4275   -0.1425   -2.3164 H   0  0  0  0  0  0  0  0  0  0  0  0
   -1.0313   -1.0322   -1.6916 H   0  0  0  0  0  0  0  0  0  0  0  0
    1.8080   -0.7732    0.0933 H   0  0  0  0  0  0  0  0  0  0  0  0
  1  3  1  0  0  0  0
  2  6  1  0  0  0  0
  3  6  1  0  0  0  0
  4  6  2  0  0  0  0
  5  6  2  0  0  0  0
  1  7  1  0  0  0  0
  1  8  1  0  0  0  0
  1  9  1  0  0  0  0
  2 10  1  0  0  0  0
  2 11  1  0  0  0  0
  2 12  1  0  0  0  0
  3 13  1  0  0  0  0
M  END
> <MM Szybki Single Point Energy>
-84.658233149481

> <MM Szybki SD Energy>
-87.236433563456

> <QM Psi4 Opt. Runtime (sec) mp2/cc-pVDZ>
229.755

> <QM Psi4 Final Opt. Energy (Har) mp2/cc-pVDZ>
-682.4032007009189

> <QM Psi4 Final SCS-Opt. Energy (Har) mp2/cc-pVDZ>
-682.3787804183698

> <Original omega conformer number>
2

> <QM Psi4 Opt. Steps mp2/cc-pVDZ>
7

> <QM Psi4 Initial Opt. Energy (Har) mp2/cc-pVDZ>
-682.399684655397

$$$$
Div_9
  -OEChem-04101909463D

 17 16  0     0  0  0  0  0  0999 V2000
    0.5009    0.9997   -0.5698 C   0  0  0  0  0  0  0  0  0  0  0  0
   -0.7313   -1.9550    1.1588 C   0  0  0  0  0  0  0  0  0  0  0  0
    0.1960    2.4866   -0.6665 C   0  0  0  0  0  0  0  0  0  0  0  0
    0.2335   -1.1730    0.2615 C   0  0  0  0  0  0  0  0  0  0  0  0
   -0.1742    0.2290    0.2003 N   0  0  0  0  0  0  0  0  0  0  0  0
    0.7141    2.9759   -1.9527 N   0  3  0  0  0  0  0  0  0  0  0  0
   -1.6996   -1.1992    1.7100 O   0  5  0  0  0  0  0  0  0  0  0  0
    1.5428    0.5998   -1.3209 O   0  0  0  0  0  0  0  0  0  0  0  0
   -0.6235   -3.1465    1.3524 O   0  0  0  0  0  0  0  0  0  0  0  0
    0.7495    2.9927    0.1428 H   0  0  0  0  0  0  0  0  0  0  0  0
   -0.8801    2.6477   -0.4884 H   0  0  0  0  0  0  0  0  0  0  0  0
    0.2439   -1.6514   -0.7344 H   0  0  0  0  0  0  0  0  0  0  0  0
    1.2521   -1.2912    0.6739 H   0  0  0  0  0  0  0  0  0  0  0  0
   -1.5158   -0.2980    1.3604 H   0  0  0  0  0  0  0  0  0  0  0  0
    1.7418    1.4056   -1.8590 H   0  0  0  0  0  0  0  0  0  0  0  0
    0.9213    3.9738   -1.8981 H   0  0  0  0  0  0  0  0  0  0  0  0
   -0.0011    2.8756   -2.6771 H   0  0  0  0  0  0  0  0  0  0  0  0
  1  3  1  0  0  0  0
  1  5  1  0  0  0  0
  1  8  2  0  0  0  0
  2  4  1  0  0  0  0
  2  7  1  0  0  0  0
  2  9  2  0  0  0  0
  3  6  1  0  0  0  0
  4  5  1  0  0  0  0
  3 10  1  0  0  0  0
  3 11  1  0  0  0  0
  4 12  1  0  0  0  0
  4 13  1  0  0  0  0
  5 14  1  0  0  0  0
  6 15  1  0  0  0  0
  6 16  1  0  0  0  0
  6 17  1  0  0  0  0
M  CHG  2   6   1   7  -1
M  END
> <MM Szybki Single Point Energy>
-80.415708251560

> <MM Szybki SD Energy>
-86.551532132330

> <QM Psi4 Opt. Runtime (sec) mp2/cc-pVDZ>
3286.44

> <QM Psi4 Final Opt. Energy (Har) mp2/cc-pVDZ>
-491.0894996779336

> <QM Psi4 Final SCS-Opt. Energy (Har) mp2/cc-pVDZ>
-491.0469768335957

> <Original omega conformer number>
2

> <QM Psi4 Opt. Steps mp2/cc-pVDZ>
39

> <QM Psi4 Initial Opt. Energy (Har) mp2/cc-pVDZ>
-490.994725106235

$$$$
Div_3b
  -OEChem-04101909473D

 28 28  0     0  0  0  0  0  0999 V2000
    2.0423    0.3475   -2.0272 C   0  0  0  0  0  0  0  0  0  0  0  0
    1.0093   -0.6288   -2.5992 C   0  0  0  0  0  0  0  0  0  0  0  0
    1.1598    1.3522   -1.2920 C   0  0  0  0  0  0  0  0  0  0  0  0
    0.0969   -0.8486   -1.3978 C   0  0  0  0  0  0  0  0  0  0  0  0
   -1.3139    1.1828   -1.1041 C   0  0  0  0  0  0  0  0  0  0  0  0
   -1.3682   -1.2525    3.6081 C   0  0  0  0  0  0  0  0  0  0  0  0
    0.1157    0.4261    0.7674 C   0  0  0  0  0  0  0  0  0  0  0  0
   -0.9515   -0.4232    1.4577 C   0  0  0  0  0  0  0  0  0  0  0  0
   -0.0163    0.5285   -0.7319 N   0  3  0  0  0  0  0  0  0  0  0  0
   -0.4424   -0.5809    2.7552 O   0  0  0  0  0  0  0  0  0  0  0  0
    2.7187   -0.1702   -1.3261 H   0  0  0  0  0  0  0  0  0  0  0  0
    2.6570    0.8449   -2.7923 H   0  0  0  0  0  0  0  0  0  0  0  0
    0.4593   -0.1726   -3.4403 H   0  0  0  0  0  0  0  0  0  0  0  0
    1.4408   -1.5786   -2.9488 H   0  0  0  0  0  0  0  0  0  0  0  0
    1.6402    1.8833   -0.4585 H   0  0  0  0  0  0  0  0  0  0  0  0
    0.7308    2.0886   -1.9883 H   0  0  0  0  0  0  0  0  0  0  0  0
   -0.9132   -1.2177   -1.6246 H   0  0  0  0  0  0  0  0  0  0  0  0
    0.5741   -1.5196   -0.6676 H   0  0  0  0  0  0  0  0  0  0  0  0
   -2.1480    0.5906   -0.7062 H   0  0  0  0  0  0  0  0  0  0  0  0
   -1.3284    2.1973   -0.6797 H   0  0  0  0  0  0  0  0  0  0  0  0
   -1.3773    1.2302   -2.2001 H   0  0  0  0  0  0  0  0  0  0  0  0
   -0.8864   -1.3388    4.5906 H   0  0  0  0  0  0  0  0  0  0  0  0
   -1.6021   -2.2630    3.2240 H   0  0  0  0  0  0  0  0  0  0  0  0
   -2.3073   -0.6771    3.7081 H   0  0  0  0  0  0  0  0  0  0  0  0
    1.1031   -0.0171    0.9712 H   0  0  0  0  0  0  0  0  0  0  0  0
    0.0987    1.4511    1.1692 H   0  0  0  0  0  0  0  0  0  0  0  0
   -1.9324    0.0943    1.4684 H   0  0  0  0  0  0  0  0  0  0  0  0
   -1.0902   -1.4007    0.9488 H   0  0  0  0  0  0  0  0  0  0  0  0
  1  2  1  0  0  0  0
  1  3  1  0  0  0  0
  2  4  1  0  0  0  0
  3  9  1  0  0  0  0
  4  9  1  0  0  0  0
  5  9  1  0  0  0  0
  6 10  1  0  0  0  0
  7  8  1  0  0  0  0
  7  9  1  0  0  0  0
  8 10  1  0  0  0  0
  1 11  1  0  0  0  0
  1 12  1  0  0  0  0
  2 13  1  0  0  0  0
  2 14  1  0  0  0  0
  3 15  1  0  0  0  0
  3 16  1  0  0  0  0
  4 17  1  0  0  0  0
  4 18  1  0  0  0  0
  5 19  1  0  0  0  0
  5 20  1  0  0  0  0
  5 21  1  0  0  0  0
  6 22  1  0  0  0  0
  6 23  1  0  0  0  0
  6 24  1  0  0  0  0
  7 25  1  0  0  0  0
  7 26  1  0  0  0  0
  8 27  1  0  0  0  0
  8 28  1  0  0  0  0
M  CHG  1   9   1
M  END
> <MM Szybki Single Point Energy>
5.559211054926

> <MM Szybki SD Energy>
-6.702211519801

> <QM Psi4 Opt. Runtime (sec) mp2/cc-pVDZ>
1497.5

> <QM Psi4 Final Opt. Energy (Har) mp2/cc-pVDZ>
-444.0213342166211

> <QM Psi4 Final SCS-Opt. Energy (Har) mp2/cc-pVDZ>
-444.0094274869307

> <Original omega conformer number>
2

> <QM Psi4 Opt. Steps mp2/cc-pVDZ>
9

> <QM Psi4 Initial Opt. Energy (Har) mp2/cc-pVDZ>
-444.015409339395

$$$$
Div_7b
  -OEChem-04101909473D

  9  8  0     0  0  0  0  0  0999 V2000
   -1.0333    1.0987   -0.5712 N   0  0  0  0  0  0  0  0  0  0  0  0
   -0.4986   -0.5963    1.4265 N   0  0  0  0  0  0  0  0  0  0  0  0
    0.0206   -1.1424   -1.0186 O   0  0  0  0  0  0  0  0  0  0  0  0
    1.3268    0.7305    0.2211 O   0  0  0  0  0  0  0  0  0  0  0  0
    0.1045   -0.0280   -0.0679 S   0  0  0  0  0  0  0  0  0  0  0  0
   -1.1012    1.8363    0.1346 H   0  0  0  0  0  0  0  0  0  0  0  0
   -1.9401    0.6333   -0.6618 H   0  0  0  0  0  0  0  0  0  0  0  0
   -0.6037   -1.6108    1.3306 H   0  0  0  0  0  0  0  0  0  0  0  0
    0.2314   -0.4155    2.1221 H   0  0  0  0  0  0  0  0  0  0  0  0
  1  5  1  0  0  0  0
  2  5  1  0  0  0  0
  3  5  2  0  0  0  0
  4  5  2  0  0  0  0
  1  6  1  0  0  0  0
  1  7  1  0  0  0  0
  2  8  1  0  0  0  0
  2  9  1  0  0  0  0
M  END
> <MM Szybki Single Point Energy>
-251.472493328915

> <MM Szybki SD Energy>
-257.049745378100

> <QM Psi4 Opt. Runtime (sec) mp2/cc-pVDZ>
128.29500000000002

> <QM Psi4 Final Opt. Energy (Har) mp2/cc-pVDZ>
-659.2557591981353

> <QM Psi4 Final SCS-Opt. Energy (Har) mp2/cc-pVDZ>
-659.2261769678453

> <Original omega conformer number>
2

> <QM Psi4 Opt. Steps mp2/cc-pVDZ>
7

> <QM Psi4 Initial Opt. Energy (Har) mp2/cc-pVDZ>
-659.248154639264

$$$$
Div_8b
  -OEChem-04101909473D

 25 25  0     1  0  0  0  0  0999 V2000
   -1.8110   -0.0693    0.3111 C   0  0  0  0  0  0  0  0  0  0  0  0
    1.2293    0.4901    0.8727 C   0  0  0  0  0  0  0  0  0  0  0  0
    2.5517    1.1556    0.4805 C   0  0  0  0  0  0  0  0  0  0  0  0
    2.6139   -0.1462   -1.5356 C   0  0  0  0  0  0  0  0  0  0  0  0
    0.5197    0.0157   -0.3974 C   0  0  3  0  0  0  0  0  0  0  0  0
   -4.1453   -0.3177    0.9380 C   0  0  0  0  0  0  0  0  0  0  0  0
    3.3412    0.2065   -0.3142 N   0  0  0  0  0  0  0  0  0  0  0  0
    1.3720   -0.8468   -1.2254 N   0  0  0  0  0  0  0  0  0  0  0  0
   -0.6736   -0.7747   -0.1003 N   0  0  0  0  0  0  0  0  0  0  0  0
   -2.9650   -0.8427    0.2645 N   0  0  0  0  0  0  0  0  0  0  0  0
   -1.7953    1.1045    0.6672 O   0  0  0  0  0  0  0  0  0  0  0  0
    1.4303   -0.3909    1.5086 H   0  0  0  0  0  0  0  0  0  0  0  0
    0.5831    1.1899    1.4251 H   0  0  0  0  0  0  0  0  0  0  0  0
    2.3305    2.0965   -0.0752 H   0  0  0  0  0  0  0  0  0  0  0  0
    3.1238    1.4316    1.3818 H   0  0  0  0  0  0  0  0  0  0  0  0
    2.3379    0.7410   -2.1488 H   0  0  0  0  0  0  0  0  0  0  0  0
    3.2515   -0.8018   -2.1511 H   0  0  0  0  0  0  0  0  0  0  0  0
    0.2620    0.9045   -1.0098 H   0  0  0  0  0  0  0  0  0  0  0  0
   -4.0487   -0.3087    2.0394 H   0  0  0  0  0  0  0  0  0  0  0  0
   -5.0181   -0.9252    0.6560 H   0  0  0  0  0  0  0  0  0  0  0  0
   -4.3068    0.7164    0.6053 H   0  0  0  0  0  0  0  0  0  0  0  0
    4.2302    0.6430   -0.5743 H   0  0  0  0  0  0  0  0  0  0  0  0
    1.6374   -1.6417   -0.6291 H   0  0  0  0  0  0  0  0  0  0  0  0
   -0.8669   -1.4122   -0.8753 H   0  0  0  0  0  0  0  0  0  0  0  0
   -2.7945   -1.8360    0.4001 H   0  0  0  0  0  0  0  0  0  0  0  0
  1  9  1  0  0  0  0
  1 10  1  0  0  0  0
  1 11  2  0  0  0  0
  2  3  1  0  0  0  0
  2  5  1  0  0  0  0
  3  7  1  0  0  0  0
  4  7  1  0  0  0  0
  4  8  1  0  0  0  0
  5  8  1  0  0  0  0
  5  9  1  0  0  0  0
  6 10  1  0  0  0  0
  2 12  1  0  0  0  0
  2 13  1  0  0  0  0
  3 14  1  0  0  0  0
  3 15  1  0  0  0  0
  4 16  1  0  0  0  0
  4 17  1  0  0  0  0
  5 18  1  0  0  0  0
  6 19  1  0  0  0  0
  6 20  1  0  0  0  0
  6 21  1  0  0  0  0
  7 22  1  0  0  0  0
  8 23  1  0  0  0  0
  9 24  1  0  0  0  0
 10 25  1  0  0  0  0
M  END
> <MM Szybki Single Point Energy>
-233.200399072859

> <MM Szybki SD Energy>
-237.072813351727

> <QM Psi4 Opt. Runtime (sec) mp2/cc-pVDZ>
2766.325

> <QM Psi4 Final Opt. Energy (Har) mp2/cc-pVDZ>
-529.7534120741968

> <QM Psi4 Final SCS-Opt. Energy (Har) mp2/cc-pVDZ>
-529.7166515577973

> <Original omega conformer number>
2

> <QM Psi4 Opt. Steps mp2/cc-pVDZ>
16

> <QM Psi4 Initial Opt. Energy (Har) mp2/cc-pVDZ>
-529.737994096783

$$$$
AlkEthOH_r187
  -OEChem-04101909473D

 29 29  0     1  0  0  0  0  0999 V2000
   -1.5151   -0.0972    1.7348 C   0  0  0  0  0  0  0  0  0  0  0  0
   -0.5949    1.0342    2.2015 C   0  0  0  0  0  0  0  0  0  0  0  0
   -1.6239   -0.2635    0.2107 C   0  0  0  0  0  0  0  0  0  0  0  0
    0.7787    1.0061    1.5404 C   0  0  0  0  0  0  0  0  0  0  0  0
   -0.3597   -0.8017   -0.4944 C   0  0  3  0  0  0  0  0  0  0  0  0
    0.6558    0.3470   -0.8222 C   0  0  0  0  0  0  0  0  0  0  0  0
   -0.7772   -1.5568   -1.7652 C   0  0  0  0  0  0  0  0  0  0  0  0
    0.2577    1.1077   -2.0920 C   0  0  0  0  0  0  0  0  0  0  0  0
    2.0829   -0.1962   -0.9849 C   0  0  0  0  0  0  0  0  0  0  0  0
    0.6551    1.3870    0.1663 O   0  0  0  0  0  0  0  0  0  0  0  0
    0.2198   -1.7556    0.4175 O   0  0  0  0  0  0  0  0  0  0  0  0
   -1.1733   -1.0546    2.1616 H   0  0  0  0  0  0  0  0  0  0  0  0
   -2.5313    0.0833    2.1303 H   0  0  0  0  0  0  0  0  0  0  0  0
   -1.0494    2.0147    1.9679 H   0  0  0  0  0  0  0  0  0  0  0  0
   -0.4742    0.9842    3.3003 H   0  0  0  0  0  0  0  0  0  0  0  0
   -2.4387   -0.9832    0.0112 H   0  0  0  0  0  0  0  0  0  0  0  0
   -1.9176    0.6915   -0.2596 H   0  0  0  0  0  0  0  0  0  0  0  0
    1.4408    1.7558    2.0091 H   0  0  0  0  0  0  0  0  0  0  0  0
    1.2435    0.0123    1.6497 H   0  0  0  0  0  0  0  0  0  0  0  0
    0.0978   -1.8859   -2.3534 H   0  0  0  0  0  0  0  0  0  0  0  0
   -1.4180   -0.9440   -2.4176 H   0  0  0  0  0  0  0  0  0  0  0  0
   -1.3437   -2.4514   -1.4590 H   0  0  0  0  0  0  0  0  0  0  0  0
    0.8866    2.0097   -2.1562 H   0  0  0  0  0  0  0  0  0  0  0  0
   -0.7943    1.4321   -2.0508 H   0  0  0  0  0  0  0  0  0  0  0  0
    0.4126    0.5036   -2.9993 H   0  0  0  0  0  0  0  0  0  0  0  0
    2.7445    0.6284   -1.2954 H   0  0  0  0  0  0  0  0  0  0  0  0
    2.1355   -0.9837   -1.7573 H   0  0  0  0  0  0  0  0  0  0  0  0
    2.4685   -0.6087   -0.0400 H   0  0  0  0  0  0  0  0  0  0  0  0
    0.8715   -2.2556   -0.0959 H   0  0  0  0  0  0  0  0  0  0  0  0
  1  2  1  0  0  0  0
  1  3  1  0  0  0  0
  2  4  1  0  0  0  0
  3  5  1  0  0  0  0
  4 10  1  0  0  0  0
  5  6  1  0  0  0  0
  5  7  1  0  0  0  0
  5 11  1  0  0  0  0
  6  8  1  0  0  0  0
  6  9  1  0  0  0  0
  6 10  1  0  0  0  0
  1 12  1  0  0  0  0
  1 13  1  0  0  0  0
  2 14  1  0  0  0  0
  2 15  1  0  0  0  0
  3 16  1  0  0  0  0
  3 17  1  0  0  0  0
  4 18  1  0  0  0  0
  4 19  1  0  0  0  0
  7 20  1  0  0  0  0
  7 21  1  0  0  0  0
  7 22  1  0  0  0  0
  8 23  1  0  0  0  0
  8 24  1  0  0  0  0
  8 25  1  0  0  0  0
  9 26  1  0  0  0  0
  9 27  1  0  0  0  0
  9 28  1  0  0  0  0
 11 29  1  0  0  0  0
M  END
> <MM Szybki Single Point Energy>
52.326057355993

> <MM Szybki SD Energy>
48.858186503486

> <QM Psi4 Opt. Runtime (sec) mp2/cc-pVDZ>
1819.56

> <QM Psi4 Final Opt. Energy (Har) mp2/cc-pVDZ>
-502.7010661422313

> <QM Psi4 Final SCS-Opt. Energy (Har) mp2/cc-pVDZ>
-502.6778349219993

> <Original omega conformer number>
2

> <QM Psi4 Opt. Steps mp2/cc-pVDZ>
8

> <QM Psi4 Initial Opt. Energy (Har) mp2/cc-pVDZ>
-502.695836082378

$$$$
