GBI
  -OEChem-05011716443D

 23 24  0     0  0  0  0  0  0999 V2000
    2.0470   -0.4963    0.6488 C   0  0  0  0  0  0  0  0  0  0  0  0
    0.6748   -0.3243    0.8484 C   0  0  0  0  0  0  0  0  0  0  0  0
    2.8822   -0.8969    1.7007 C   0  0  0  0  0  0  0  0  0  0  0  0
    0.0892   -0.5452    2.0997 C   0  0  0  0  0  0  0  0  0  0  0  0
    2.3110   -1.1219    2.9615 C   0  0  0  0  0  0  0  0  0  0  0  0
    0.9457   -0.9429    3.1273 C   0  0  0  0  0  0  0  0  0  0  0  0
    1.9263   -1.5790    5.0340 C   0  0  0  0  0  0  0  0  0  0  0  0
    3.1321   -2.2569    6.9973 C   0  3  0  0  0  0  0  0  0  0  0  0
    2.8988   -1.5128    4.1401 N   0  0  0  0  0  0  0  0  0  0  0  0
    0.7277   -1.2401    4.4470 N   0  0  0  0  0  0  0  0  0  0  0  0
    4.3112   -2.2914    6.3721 N   0  0  0  0  0  0  0  0  0  0  0  0
    3.0986   -2.5705    8.2978 N   0  0  0  0  0  0  0  0  0  0  0  0
    1.9876   -1.9205    6.3702 N   0  0  0  0  0  0  0  0  0  0  0  0
    2.4748   -0.3169   -0.3367 H   0  0  0  0  0  0  0  0  0  0  0  0
    0.0472   -0.0117    0.0138 H   0  0  0  0  0  0  0  0  0  0  0  0
    3.9483   -1.0299    1.5439 H   0  0  0  0  0  0  0  0  0  0  0  0
   -0.9774   -0.4121    2.2574 H   0  0  0  0  0  0  0  0  0  0  0  0
   -0.1618   -1.2153    4.9215 H   0  0  0  0  0  0  0  0  0  0  0  0
    5.1612   -2.5445    6.8523 H   0  0  0  0  0  0  0  0  0  0  0  0
    4.3455   -2.0543    5.3843 H   0  0  0  0  0  0  0  0  0  0  0  0
    3.9453   -2.8245    8.7867 H   0  0  0  0  0  0  0  0  0  0  0  0
    2.2325   -2.5593    8.8177 H   0  0  0  0  0  0  0  0  0  0  0  0
    1.1566   -1.9311    6.9488 H   0  0  0  0  0  0  0  0  0  0  0  0
  1  2  2  0  0  0  0
  1  3  1  0  0  0  0
  2  4  1  0  0  0  0
  3  5  2  0  0  0  0
  4  6  2  0  0  0  0
  5  6  1  0  0  0  0
  5  9  1  0  0  0  0
  6 10  1  0  0  0  0
  7  9  2  0  0  0  0
  7 10  1  0  0  0  0
  7 13  1  0  0  0  0
  8 11  1  0  0  0  0
  8 12  1  0  0  0  0
  8 13  1  0  0  0  0
  1 14  1  0  0  0  0
  2 15  1  0  0  0  0
  3 16  1  0  0  0  0
  4 17  1  0  0  0  0
 10 18  1  0  0  0  0
 11 19  1  0  0  0  0
 11 20  1  0  0  0  0
 12 21  1  0  0  0  0
 12 22  1  0  0  0  0
 13 23  1  0  0  0  0
M  CHG  1   8   1
M  END
> <MM Szybki Single Point Energy>
-266.597305479771

> <MM Szybki SD Energy>
-273.679403818895

$$$$
GBI
  -OEChem-05011716443D

 23 24  0     0  0  0  0  0  0999 V2000
    2.0682   -0.3844    0.6845 C   0  0  0  0  0  0  0  0  0  0  0  0
    0.6835   -0.3049    0.8547 C   0  0  0  0  0  0  0  0  0  0  0  0
    2.9044   -0.7412    1.7510 C   0  0  0  0  0  0  0  0  0  0  0  0
    0.0855   -0.5843    2.0885 C   0  0  0  0  0  0  0  0  0  0  0  0
    2.3205   -1.0265    2.9935 C   0  0  0  0  0  0  0  0  0  0  0  0
    0.9423   -0.9481    3.1283 C   0  0  0  0  0  0  0  0  0  0  0  0
    1.9166   -1.5973    5.0336 C   0  0  0  0  0  0  0  0  0  0  0  0
    3.1210   -2.2960    6.9886 C   0  3  0  0  0  0  0  0  0  0  0  0
    2.9063   -1.4011    4.1777 N   0  0  0  0  0  0  0  0  0  0  0  0
    0.7138   -1.3040    4.4315 N   0  0  0  0  0  0  0  0  0  0  0  0
    4.3179   -2.0432    6.4531 N   0  0  0  0  0  0  0  0  0  0  0  0
    3.0789   -2.8197    8.2191 N   0  0  0  0  0  0  0  0  0  0  0  0
    1.9679   -2.0398    6.3397 N   0  0  0  0  0  0  0  0  0  0  0  0
    2.5049   -0.1678   -0.2896 H   0  0  0  0  0  0  0  0  0  0  0  0
    0.0556   -0.0232    0.0094 H   0  0  0  0  0  0  0  0  0  0  0  0
    3.9799   -0.8043    1.6172 H   0  0  0  0  0  0  0  0  0  0  0  0
   -0.9911   -0.5266    2.2220 H   0  0  0  0  0  0  0  0  0  0  0  0
   -0.1877   -1.3647    4.8808 H   0  0  0  0  0  0  0  0  0  0  0  0
    5.1743   -2.2229    6.9546 H   0  0  0  0  0  0  0  0  0  0  0  0
    4.3594   -1.6603    5.5127 H   0  0  0  0  0  0  0  0  0  0  0  0
    3.9324   -3.0275    8.7177 H   0  0  0  0  0  0  0  0  0  0  0  0
    2.2002   -3.0572    8.6574 H   0  0  0  0  0  0  0  0  0  0  0  0
    1.1230   -2.2039    6.8739 H   0  0  0  0  0  0  0  0  0  0  0  0
  1  2  2  0  0  0  0
  1  3  1  0  0  0  0
  2  4  1  0  0  0  0
  3  5  2  0  0  0  0
  4  6  2  0  0  0  0
  5  6  1  0  0  0  0
  5  9  1  0  0  0  0
  6 10  1  0  0  0  0
  7  9  2  0  0  0  0
  7 10  1  0  0  0  0
  7 13  1  0  0  0  0
  8 11  1  0  0  0  0
  8 12  1  0  0  0  0
  8 13  1  0  0  0  0
  1 14  1  0  0  0  0
  2 15  1  0  0  0  0
  3 16  1  0  0  0  0
  4 17  1  0  0  0  0
 10 18  1  0  0  0  0
 11 19  1  0  0  0  0
 11 20  1  0  0  0  0
 12 21  1  0  0  0  0
 12 22  1  0  0  0  0
 13 23  1  0  0  0  0
M  CHG  1   8   1
M  END
> <MM Szybki Single Point Energy>
-262.023227021591

> <MM Szybki SD Energy>
-273.361488335978

$$$$
GBI
  -OEChem-05011716443D

 23 24  0     0  0  0  0  0  0999 V2000
    2.0356   -0.3180    0.7013 C   0  0  0  0  0  0  0  0  0  0  0  0
    0.6472   -0.4108    0.8287 C   0  0  0  0  0  0  0  0  0  0  0  0
    2.8748   -0.5404    1.8012 C   0  0  0  0  0  0  0  0  0  0  0  0
    0.0498   -0.7490    2.0481 C   0  0  0  0  0  0  0  0  0  0  0  0
    2.2911   -0.8684    3.0332 C   0  0  0  0  0  0  0  0  0  0  0  0
    0.9120   -0.9827    3.1206 C   0  0  0  0  0  0  0  0  0  0  0  0
    1.8985   -1.4396    5.0742 C   0  0  0  0  0  0  0  0  0  0  0  0
    3.0940   -1.7494    7.1307 C   0  3  0  0  0  0  0  0  0  0  0  0
    2.8783   -1.1125    4.2504 N   0  0  0  0  0  0  0  0  0  0  0  0
    0.6891   -1.3597    4.4197 N   0  0  0  0  0  0  0  0  0  0  0  0
    4.1959   -1.1378    6.6894 N   0  0  0  0  0  0  0  0  0  0  0  0
    3.1184   -2.2865    8.3558 N   0  0  0  0  0  0  0  0  0  0  0  0
    1.9655   -1.8267    6.3979 N   0  0  0  0  0  0  0  0  0  0  0  0
    2.4729   -0.0670   -0.2642 H   0  0  0  0  0  0  0  0  0  0  0  0
    0.0162   -0.2218   -0.0398 H   0  0  0  0  0  0  0  0  0  0  0  0
    3.9534   -0.4661    1.7019 H   0  0  0  0  0  0  0  0  0  0  0  0
   -1.0290   -0.8285    2.1475 H   0  0  0  0  0  0  0  0  0  0  0  0
   -0.2087   -1.5424    4.8390 H   0  0  0  0  0  0  0  0  0  0  0  0
    5.0202   -1.0477    7.2634 H   0  0  0  0  0  0  0  0  0  0  0  0
    4.1963   -0.7496    5.7507 H   0  0  0  0  0  0  0  0  0  0  0  0
    3.9560   -2.2411    8.9188 H   0  0  0  0  0  0  0  0  0  0  0  0
    2.3281   -2.8021    8.7164 H   0  0  0  0  0  0  0  0  0  0  0  0
    1.1526   -2.1796    6.8871 H   0  0  0  0  0  0  0  0  0  0  0  0
  1  2  2  0  0  0  0
  1  3  1  0  0  0  0
  2  4  1  0  0  0  0
  3  5  2  0  0  0  0
  4  6  2  0  0  0  0
  5  6  1  0  0  0  0
  5  9  1  0  0  0  0
  6 10  1  0  0  0  0
  7  9  2  0  0  0  0
  7 10  1  0  0  0  0
  7 13  1  0  0  0  0
  8 11  1  0  0  0  0
  8 12  1  0  0  0  0
  8 13  1  0  0  0  0
  1 14  1  0  0  0  0
  2 15  1  0  0  0  0
  3 16  1  0  0  0  0
  4 17  1  0  0  0  0
 10 18  1  0  0  0  0
 11 19  1  0  0  0  0
 11 20  1  0  0  0  0
 12 21  1  0  0  0  0
 12 22  1  0  0  0  0
 13 23  1  0  0  0  0
M  CHG  1   8   1
M  END
> <MM Szybki Single Point Energy>
-256.929003750361

> <MM Szybki SD Energy>
-272.500613404917

$$$$
GBI
  -OEChem-05011716443D

 23 24  0     0  0  0  0  0  0999 V2000
    1.9755   -0.6634    0.6120 C   0  0  0  0  0  0  0  0  0  0  0  0
    0.6716   -0.2341    0.8727 C   0  0  0  0  0  0  0  0  0  0  0  0
    2.7598   -1.2347    1.6230 C   0  0  0  0  0  0  0  0  0  0  0  0
    0.1134   -0.3391    2.1517 C   0  0  0  0  0  0  0  0  0  0  0  0
    2.2110   -1.3574    2.9074 C   0  0  0  0  0  0  0  0  0  0  0  0
    0.9250   -0.8945    3.1420 C   0  0  0  0  0  0  0  0  0  0  0  0
    1.8582   -1.7041    5.0055 C   0  0  0  0  0  0  0  0  0  0  0  0
    2.9433   -2.7389    6.8778 C   0  3  0  0  0  0  0  0  0  0  0  0
    2.7538   -1.8889    4.0513 N   0  0  0  0  0  0  0  0  0  0  0  0
    0.7300   -1.1137    4.4810 N   0  0  0  0  0  0  0  0  0  0  0  0
    3.8398   -3.3788    6.1228 N   0  0  0  0  0  0  0  0  0  0  0  0
    3.0429   -2.8516    8.2071 N   0  0  0  0  0  0  0  0  0  0  0  0
    1.9430   -2.0063    6.3499 N   0  0  0  0  0  0  0  0  0  0  0  0
    2.3885   -0.5555   -0.3901 H   0  0  0  0  0  0  0  0  0  0  0  0
    0.0785    0.1966    0.0659 H   0  0  0  0  0  0  0  0  0  0  0  0
    3.7723   -1.5696    1.4192 H   0  0  0  0  0  0  0  0  0  0  0  0
   -0.8976    0.0006    2.3580 H   0  0  0  0  0  0  0  0  0  0  0  0
   -0.1016   -0.8885    5.0044 H   0  0  0  0  0  0  0  0  0  0  0  0
    3.7889   -3.2783    5.1133 H   0  0  0  0  0  0  0  0  0  0  0  0
    4.5579   -3.9599    6.5275 H   0  0  0  0  0  0  0  0  0  0  0  0
    3.7886   -3.3930    8.6212 H   0  0  0  0  0  0  0  0  0  0  0  0
    2.4209   -2.3467    8.8225 H   0  0  0  0  0  0  0  0  0  0  0  0
    1.2389   -1.6940    7.0070 H   0  0  0  0  0  0  0  0  0  0  0  0
  1  2  2  0  0  0  0
  1  3  1  0  0  0  0
  2  4  1  0  0  0  0
  3  5  2  0  0  0  0
  4  6  2  0  0  0  0
  5  6  1  0  0  0  0
  5  9  1  0  0  0  0
  6 10  1  0  0  0  0
  7  9  2  0  0  0  0
  7 10  1  0  0  0  0
  7 13  1  0  0  0  0
  8 11  1  0  0  0  0
  8 12  1  0  0  0  0
  8 13  1  0  0  0  0
  1 14  1  0  0  0  0
  2 15  1  0  0  0  0
  3 16  1  0  0  0  0
  4 17  1  0  0  0  0
 10 18  1  0  0  0  0
 11 19  1  0  0  0  0
 11 20  1  0  0  0  0
 12 21  1  0  0  0  0
 12 22  1  0  0  0  0
 13 23  1  0  0  0  0
M  CHG  1   8   1
M  END
> <MM Szybki Single Point Energy>
-256.147850377362

> <MM Szybki SD Energy>
-272.455538726991

$$$$
GBI
  -OEChem-05011716443D

 23 24  0     0  0  0  0  0  0999 V2000
    2.0729   -0.4095    0.6347 C   0  0  0  0  0  0  0  0  0  0  0  0
    0.6826   -0.3631    0.7670 C   0  0  0  0  0  0  0  0  0  0  0  0
    2.8883   -0.7473    1.7235 C   0  0  0  0  0  0  0  0  0  0  0  0
    0.0582   -0.6614    1.9829 C   0  0  0  0  0  0  0  0  0  0  0  0
    2.2779   -1.0457    2.9502 C   0  0  0  0  0  0  0  0  0  0  0  0
    0.8955   -1.0066    3.0443 C   0  0  0  0  0  0  0  0  0  0  0  0
    1.8337   -1.6092    4.9869 C   0  0  0  0  0  0  0  0  0  0  0  0
    0.9706   -2.4945    7.0868 C   0  3  0  0  0  0  0  0  0  0  0  0
    2.8385   -1.3837    4.1571 N   0  0  0  0  0  0  0  0  0  0  0  0
    0.6402   -1.3586    4.3431 N   0  0  0  0  0  0  0  0  0  0  0  0
   -0.0998   -3.1171    6.5797 N   0  0  0  0  0  0  0  0  0  0  0  0
    1.0870   -2.4358    8.4174 N   0  0  0  0  0  0  0  0  0  0  0  0
    1.9379   -1.9596    6.3191 N   0  0  0  0  0  0  0  0  0  0  0  0
    2.5306   -0.1773   -0.3260 H   0  0  0  0  0  0  0  0  0  0  0  0
    0.0712   -0.0906   -0.0932 H   0  0  0  0  0  0  0  0  0  0  0  0
    3.9686   -0.7784    1.6209 H   0  0  0  0  0  0  0  0  0  0  0  0
   -1.0225   -0.6268    2.0888 H   0  0  0  0  0  0  0  0  0  0  0  0
   -0.2714   -1.3795    4.7755 H   0  0  0  0  0  0  0  0  0  0  0  0
   -0.7999   -3.5072    7.1958 H   0  0  0  0  0  0  0  0  0  0  0  0
   -0.1211   -3.4105    5.6133 H   0  0  0  0  0  0  0  0  0  0  0  0
    0.3785   -2.8359    9.0164 H   0  0  0  0  0  0  0  0  0  0  0  0
    1.8585   -1.9479    8.8508 H   0  0  0  0  0  0  0  0  0  0  0  0
    2.8317   -1.8397    6.7803 H   0  0  0  0  0  0  0  0  0  0  0  0
  1  2  2  0  0  0  0
  1  3  1  0  0  0  0
  2  4  1  0  0  0  0
  3  5  2  0  0  0  0
  4  6  2  0  0  0  0
  5  6  1  0  0  0  0
  5  9  1  0  0  0  0
  6 10  1  0  0  0  0
  7  9  2  0  0  0  0
  7 10  1  0  0  0  0
  7 13  1  0  0  0  0
  8 11  1  0  0  0  0
  8 12  1  0  0  0  0
  8 13  1  0  0  0  0
  1 14  1  0  0  0  0
  2 15  1  0  0  0  0
  3 16  1  0  0  0  0
  4 17  1  0  0  0  0
 10 18  1  0  0  0  0
 11 19  1  0  0  0  0
 11 20  1  0  0  0  0
 12 21  1  0  0  0  0
 12 22  1  0  0  0  0
 13 23  1  0  0  0  0
M  CHG  1   8   1
M  END
> <MM Szybki Single Point Energy>
-256.168461203209

> <MM Szybki SD Energy>
-265.984672949884

$$$$
