GBI
  -OEChem-05011720153D

 23 24  0     0  0  0  0  0  0999 V2000
   -0.0239    0.8873   -3.5350 C   0  0  0  0  0  0  0  0  0  0  0  0
   -1.4174    1.0661   -3.3553 C   0  0  0  0  0  0  0  0  0  0  0  0
    0.8037    0.4918   -2.4861 C   0  0  0  0  0  0  0  0  0  0  0  0
   -2.0337    0.8562   -2.1215 C   0  0  0  0  0  0  0  0  0  0  0  0
    0.1994    0.2760   -1.2366 C   0  0  0  0  0  0  0  0  0  0  0  0
   -1.1943    0.4587   -1.0724 C   0  0  0  0  0  0  0  0  0  0  0  0
   -0.2398   -0.1651    0.8111 C   0  0  0  0  0  0  0  0  0  0  0  0
    1.0444   -0.8590    2.7742 C   0  3  0  0  0  0  0  0  0  0  0  0
    0.7652   -0.1170   -0.0317 N   0  0  0  0  0  0  0  0  0  0  0  0
   -1.4429    0.1643    0.2625 N   0  0  0  0  0  0  0  0  0  0  0  0
    2.1672   -0.8678    2.0801 N   0  0  0  0  0  0  0  0  0  0  0  0
    1.0114   -1.1768    4.0766 N   0  0  0  0  0  0  0  0  0  0  0  0
   -0.1202   -0.5212    2.1655 N   0  0  0  0  0  0  0  0  0  0  0  0
    0.4101    1.0654   -4.5251 H   0  0  0  0  0  0  0  0  0  0  0  0
   -2.0290    1.3781   -4.2094 H   0  0  0  0  0  0  0  0  0  0  0  0
    1.8811    0.3524   -2.6208 H   0  0  0  0  0  0  0  0  0  0  0  0
   -3.1118    0.9962   -1.9897 H   0  0  0  0  0  0  0  0  0  0  0  0
   -2.3512    0.1961    0.7197 H   0  0  0  0  0  0  0  0  0  0  0  0
    3.0531   -1.1168    2.5130 H   0  0  0  0  0  0  0  0  0  0  0  0
    2.0975   -0.6080    1.0699 H   0  0  0  0  0  0  0  0  0  0  0  0
    1.8613   -1.4363    4.5702 H   0  0  0  0  0  0  0  0  0  0  0  0
    0.1492   -1.1701    4.6132 H   0  0  0  0  0  0  0  0  0  0  0  0
   -0.9670   -0.5267    2.7283 H   0  0  0  0  0  0  0  0  0  0  0  0
  1  2  2  0  0  0  0
  1  3  1  0  0  0  0
  2  4  1  0  0  0  0
  3  5  2  0  0  0  0
  4  6  2  0  0  0  0
  5  6  1  0  0  0  0
  5  9  1  0  0  0  0
  6 10  1  0  0  0  0
  7  9  2  0  0  0  0
  7 10  1  0  0  0  0
  7 13  1  0  0  0  0
  8 11  1  0  0  0  0
  8 12  1  0  0  0  0
  8 13  1  0  0  0  0
  1 14  1  0  0  0  0
  2 15  1  0  0  0  0
  3 16  1  0  0  0  0
  4 17  1  0  0  0  0
 10 18  1  0  0  0  0
 11 19  1  0  0  0  0
 11 20  1  0  0  0  0
 12 21  1  0  0  0  0
 12 22  1  0  0  0  0
 13 23  1  0  0  0  0
M  CHG  1   8   1
M  END
> <MM Szybki Single Point Energy>
-266.597305479771

> <MM Szybki SD Energy>
-273.679403818895

> <QM Psi4 Final Opt. Energy (Har) mp2/def2-SV(P)>
-582.156839405

> <QM Psi4 Opt. Runtime (sec) mp2/def2-SV(P)>
847.0

> <Original omega conformer number>
1

> <QM Psi4 Opt. Steps mp2/def2-SV(P)>
8

> <QM Psi4 Initial Opt. Energy (Har) mp2/def2-SV(P)>
-582.14892208

$$$$
GBI
  -OEChem-05011720153D

 23 24  0     0  0  0  0  0  0999 V2000
    2.0682   -0.3844    0.6845 C   0  0  0  0  0  0  0  0  0  0  0  0
    0.6835   -0.3049    0.8547 C   0  0  0  0  0  0  0  0  0  0  0  0
    2.9044   -0.7412    1.7510 C   0  0  0  0  0  0  0  0  0  0  0  0
    0.0855   -0.5843    2.0885 C   0  0  0  0  0  0  0  0  0  0  0  0
    2.3205   -1.0265    2.9935 C   0  0  0  0  0  0  0  0  0  0  0  0
    0.9423   -0.9481    3.1283 C   0  0  0  0  0  0  0  0  0  0  0  0
    1.9166   -1.5973    5.0336 C   0  0  0  0  0  0  0  0  0  0  0  0
    3.1210   -2.2960    6.9886 C   0  3  0  0  0  0  0  0  0  0  0  0
    2.9063   -1.4011    4.1777 N   0  0  0  0  0  0  0  0  0  0  0  0
    0.7138   -1.3040    4.4315 N   0  0  0  0  0  0  0  0  0  0  0  0
    4.3179   -2.0432    6.4531 N   0  0  0  0  0  0  0  0  0  0  0  0
    3.0789   -2.8197    8.2191 N   0  0  0  0  0  0  0  0  0  0  0  0
    1.9679   -2.0398    6.3397 N   0  0  0  0  0  0  0  0  0  0  0  0
    2.5049   -0.1678   -0.2896 H   0  0  0  0  0  0  0  0  0  0  0  0
    0.0556   -0.0232    0.0094 H   0  0  0  0  0  0  0  0  0  0  0  0
    3.9799   -0.8043    1.6172 H   0  0  0  0  0  0  0  0  0  0  0  0
   -0.9911   -0.5266    2.2220 H   0  0  0  0  0  0  0  0  0  0  0  0
   -0.1877   -1.3647    4.8808 H   0  0  0  0  0  0  0  0  0  0  0  0
    5.1743   -2.2229    6.9546 H   0  0  0  0  0  0  0  0  0  0  0  0
    4.3594   -1.6603    5.5127 H   0  0  0  0  0  0  0  0  0  0  0  0
    3.9324   -3.0275    8.7177 H   0  0  0  0  0  0  0  0  0  0  0  0
    2.2002   -3.0572    8.6574 H   0  0  0  0  0  0  0  0  0  0  0  0
    1.1230   -2.2039    6.8739 H   0  0  0  0  0  0  0  0  0  0  0  0
  1  2  2  0  0  0  0
  1  3  1  0  0  0  0
  2  4  1  0  0  0  0
  3  5  2  0  0  0  0
  4  6  2  0  0  0  0
  5  6  1  0  0  0  0
  5  9  1  0  0  0  0
  6 10  1  0  0  0  0
  7  9  2  0  0  0  0
  7 10  1  0  0  0  0
  7 13  1  0  0  0  0
  8 11  1  0  0  0  0
  8 12  1  0  0  0  0
  8 13  1  0  0  0  0
  1 14  1  0  0  0  0
  2 15  1  0  0  0  0
  3 16  1  0  0  0  0
  4 17  1  0  0  0  0
 10 18  1  0  0  0  0
 11 19  1  0  0  0  0
 11 20  1  0  0  0  0
 12 21  1  0  0  0  0
 12 22  1  0  0  0  0
 13 23  1  0  0  0  0
M  CHG  1   8   1
M  END
> <MM Szybki Single Point Energy>
-262.023227021591

> <MM Szybki SD Energy>
-273.361488335978

> <Note on opt.>
JOB DID NOT FINISH (opt mp2/def2-SV(P))

$$$$
GBI
  -OEChem-05011720153D

 23 24  0     0  0  0  0  0  0999 V2000
   -0.0266    0.9708   -3.5124 C   0  0  0  0  0  0  0  0  0  0  0  0
   -1.4301    0.8021   -3.4192 C   0  0  0  0  0  0  0  0  0  0  0  0
    0.8124    0.7283   -2.4271 C   0  0  0  0  0  0  0  0  0  0  0  0
   -2.0449    0.3843   -2.2390 C   0  0  0  0  0  0  0  0  0  0  0  0
    0.2094    0.3117   -1.2285 C   0  0  0  0  0  0  0  0  0  0  0  0
   -1.1944    0.1452   -1.1512 C   0  0  0  0  0  0  0  0  0  0  0  0
   -0.2226   -0.3379    0.7642 C   0  0  0  0  0  0  0  0  0  0  0  0
    1.0358   -0.5817    2.8443 C   0  3  0  0  0  0  0  0  0  0  0  0
    0.7870   -0.0093   -0.0084 N   0  0  0  0  0  0  0  0  0  0  0  0
   -1.4379   -0.2689    0.1518 N   0  0  0  0  0  0  0  0  0  0  0  0
    2.1380   -0.1356    2.2718 N   0  0  0  0  0  0  0  0  0  0  0  0
    0.9959   -0.9328    4.1386 N   0  0  0  0  0  0  0  0  0  0  0  0
   -0.0993   -0.7180    2.1131 N   0  0  0  0  0  0  0  0  0  0  0  0
    0.4056    1.2978   -4.4646 H   0  0  0  0  0  0  0  0  0  0  0  0
   -2.0503    1.0045   -4.2997 H   0  0  0  0  0  0  0  0  0  0  0  0
    1.8978    0.8540   -2.4956 H   0  0  0  0  0  0  0  0  0  0  0  0
   -3.1304    0.2543   -2.1747 H   0  0  0  0  0  0  0  0  0  0  0  0
   -2.3533   -0.4229    0.5684 H   0  0  0  0  0  0  0  0  0  0  0  0
    2.9619    0.0952    2.8220 H   0  0  0  0  0  0  0  0  0  0  0  0
    2.1010    0.0227    1.2402 H   0  0  0  0  0  0  0  0  0  0  0  0
    1.8424   -0.9314    4.7021 H   0  0  0  0  0  0  0  0  0  0  0  0
    0.1142   -1.0522    4.6297 H   0  0  0  0  0  0  0  0  0  0  0  0
   -0.8433   -1.2872    2.5120 H   0  0  0  0  0  0  0  0  0  0  0  0
  1  2  2  0  0  0  0
  1  3  1  0  0  0  0
  2  4  1  0  0  0  0
  3  5  2  0  0  0  0
  4  6  2  0  0  0  0
  5  6  1  0  0  0  0
  5  9  1  0  0  0  0
  6 10  1  0  0  0  0
  7  9  2  0  0  0  0
  7 10  1  0  0  0  0
  7 13  1  0  0  0  0
  8 11  1  0  0  0  0
  8 12  1  0  0  0  0
  8 13  1  0  0  0  0
  1 14  1  0  0  0  0
  2 15  1  0  0  0  0
  3 16  1  0  0  0  0
  4 17  1  0  0  0  0
 10 18  1  0  0  0  0
 11 19  1  0  0  0  0
 11 20  1  0  0  0  0
 12 21  1  0  0  0  0
 12 22  1  0  0  0  0
 13 23  1  0  0  0  0
M  CHG  1   8   1
M  END
> <MM Szybki Single Point Energy>
-256.929003750361

> <MM Szybki SD Energy>
-272.500613404917

> <QM Psi4 Final Opt. Energy (Har) mp2/def2-SV(P)>
-582.157026549

> <QM Psi4 Opt. Runtime (sec) mp2/def2-SV(P)>
2635.0

> <Original omega conformer number>
3

> <QM Psi4 Opt. Steps mp2/def2-SV(P)>
21

> <QM Psi4 Initial Opt. Energy (Har) mp2/def2-SV(P)>
-582.146838703

$$$$
GBI
  -OEChem-05011720153D

 23 24  0     0  0  0  0  0  0999 V2000
    1.9755   -0.6634    0.6120 C   0  0  0  0  0  0  0  0  0  0  0  0
    0.6716   -0.2341    0.8727 C   0  0  0  0  0  0  0  0  0  0  0  0
    2.7598   -1.2347    1.6230 C   0  0  0  0  0  0  0  0  0  0  0  0
    0.1134   -0.3391    2.1517 C   0  0  0  0  0  0  0  0  0  0  0  0
    2.2110   -1.3574    2.9074 C   0  0  0  0  0  0  0  0  0  0  0  0
    0.9250   -0.8945    3.1420 C   0  0  0  0  0  0  0  0  0  0  0  0
    1.8582   -1.7041    5.0055 C   0  0  0  0  0  0  0  0  0  0  0  0
    2.9433   -2.7389    6.8778 C   0  3  0  0  0  0  0  0  0  0  0  0
    2.7538   -1.8889    4.0513 N   0  0  0  0  0  0  0  0  0  0  0  0
    0.7300   -1.1137    4.4810 N   0  0  0  0  0  0  0  0  0  0  0  0
    3.8398   -3.3788    6.1228 N   0  0  0  0  0  0  0  0  0  0  0  0
    3.0429   -2.8516    8.2071 N   0  0  0  0  0  0  0  0  0  0  0  0
    1.9430   -2.0063    6.3499 N   0  0  0  0  0  0  0  0  0  0  0  0
    2.3885   -0.5555   -0.3901 H   0  0  0  0  0  0  0  0  0  0  0  0
    0.0785    0.1966    0.0659 H   0  0  0  0  0  0  0  0  0  0  0  0
    3.7723   -1.5696    1.4192 H   0  0  0  0  0  0  0  0  0  0  0  0
   -0.8976    0.0006    2.3580 H   0  0  0  0  0  0  0  0  0  0  0  0
   -0.1016   -0.8885    5.0044 H   0  0  0  0  0  0  0  0  0  0  0  0
    3.7889   -3.2783    5.1133 H   0  0  0  0  0  0  0  0  0  0  0  0
    4.5579   -3.9599    6.5275 H   0  0  0  0  0  0  0  0  0  0  0  0
    3.7886   -3.3930    8.6212 H   0  0  0  0  0  0  0  0  0  0  0  0
    2.4209   -2.3467    8.8225 H   0  0  0  0  0  0  0  0  0  0  0  0
    1.2389   -1.6940    7.0070 H   0  0  0  0  0  0  0  0  0  0  0  0
  1  2  2  0  0  0  0
  1  3  1  0  0  0  0
  2  4  1  0  0  0  0
  3  5  2  0  0  0  0
  4  6  2  0  0  0  0
  5  6  1  0  0  0  0
  5  9  1  0  0  0  0
  6 10  1  0  0  0  0
  7  9  2  0  0  0  0
  7 10  1  0  0  0  0
  7 13  1  0  0  0  0
  8 11  1  0  0  0  0
  8 12  1  0  0  0  0
  8 13  1  0  0  0  0
  1 14  1  0  0  0  0
  2 15  1  0  0  0  0
  3 16  1  0  0  0  0
  4 17  1  0  0  0  0
 10 18  1  0  0  0  0
 11 19  1  0  0  0  0
 11 20  1  0  0  0  0
 12 21  1  0  0  0  0
 12 22  1  0  0  0  0
 13 23  1  0  0  0  0
M  CHG  1   8   1
M  END
> <MM Szybki Single Point Energy>
-256.147850377362

> <MM Szybki SD Energy>
-272.455538726991

> <Note on opt.>
JOB DID NOT FINISH (opt mp2/def2-SV(P))

$$$$
GBI
  -OEChem-05011720153D

 23 24  0     0  0  0  0  0  0999 V2000
    0.5873    0.3340   -3.5810 C   0  0  0  0  0  0  0  0  0  0  0  0
   -0.2431    1.4777   -3.4838 C   0  0  0  0  0  0  0  0  0  0  0  0
    0.9058   -0.4350   -2.4639 C   0  0  0  0  0  0  0  0  0  0  0  0
   -0.7836    1.8942   -2.2673 C   0  0  0  0  0  0  0  0  0  0  0  0
    0.3656   -0.0328   -1.2310 C   0  0  0  0  0  0  0  0  0  0  0  0
   -0.4608    1.1137   -1.1491 C   0  0  0  0  0  0  0  0  0  0  0  0
   -0.1917    0.1762    0.8245 C   0  0  0  0  0  0  0  0  0  0  0  0
    0.0457   -1.1632    2.8541 C   0  3  0  0  0  0  0  0  0  0  0  0
    0.5190   -0.5906    0.0302 N   0  0  0  0  0  0  0  0  0  0  0  0
   -0.8068    1.2147    0.1921 N   0  0  0  0  0  0  0  0  0  0  0  0
    0.6670   -2.1211    2.1923 N   0  0  0  0  0  0  0  0  0  0  0  0
   -0.2073   -1.2525    4.1688 N   0  0  0  0  0  0  0  0  0  0  0  0
   -0.3392   -0.0337    2.2078 N   0  0  0  0  0  0  0  0  0  0  0  0
    0.9887    0.0525   -4.5608 H   0  0  0  0  0  0  0  0  0  0  0  0
   -0.4661    2.0522   -4.3899 H   0  0  0  0  0  0  0  0  0  0  0  0
    1.5499   -1.3175   -2.5338 H   0  0  0  0  0  0  0  0  0  0  0  0
   -1.4233    2.7804   -2.1994 H   0  0  0  0  0  0  0  0  0  0  0  0
   -1.4466    1.8959    0.5943 H   0  0  0  0  0  0  0  0  0  0  0  0
    0.8510   -3.0248    2.6214 H   0  0  0  0  0  0  0  0  0  0  0  0
    0.9057   -1.9247    1.1947 H   0  0  0  0  0  0  0  0  0  0  0  0
    0.1412   -2.0390    4.7110 H   0  0  0  0  0  0  0  0  0  0  0  0
   -0.8762   -0.6375    4.6238 H   0  0  0  0  0  0  0  0  0  0  0  0
   -0.5819    0.7706    2.7830 H   0  0  0  0  0  0  0  0  0  0  0  0
  1  2  2  0  0  0  0
  1  3  1  0  0  0  0
  2  4  1  0  0  0  0
  3  5  2  0  0  0  0
  4  6  2  0  0  0  0
  5  6  1  0  0  0  0
  5  9  1  0  0  0  0
  6 10  1  0  0  0  0
  7  9  2  0  0  0  0
  7 10  1  0  0  0  0
  7 13  1  0  0  0  0
  8 11  1  0  0  0  0
  8 12  1  0  0  0  0
  8 13  1  0  0  0  0
  1 14  1  0  0  0  0
  2 15  1  0  0  0  0
  3 16  1  0  0  0  0
  4 17  1  0  0  0  0
 10 18  1  0  0  0  0
 11 19  1  0  0  0  0
 11 20  1  0  0  0  0
 12 21  1  0  0  0  0
 12 22  1  0  0  0  0
 13 23  1  0  0  0  0
M  CHG  1   8   1
M  END
> <MM Szybki Single Point Energy>
-256.168461203209

> <MM Szybki SD Energy>
-265.984672949884

> <QM Psi4 Final Opt. Energy (Har) mp2/def2-SV(P)>
-582.157026436

> <QM Psi4 Opt. Runtime (sec) mp2/def2-SV(P)>
3037.0

> <Original omega conformer number>
5

> <QM Psi4 Opt. Steps mp2/def2-SV(P)>
25

> <QM Psi4 Initial Opt. Energy (Har) mp2/def2-SV(P)>
-582.128742352

$$$$
