GBI
  -OEChem-05011716443D

 23 24  0     0  0  0  0  0  0999 V2000
    2.0470   -0.4963    0.6488 C   0  0  0  0  0  0  0  0  0  0  0  0
    0.6748   -0.3243    0.8484 C   0  0  0  0  0  0  0  0  0  0  0  0
    2.8822   -0.8969    1.7007 C   0  0  0  0  0  0  0  0  0  0  0  0
    0.0892   -0.5452    2.0997 C   0  0  0  0  0  0  0  0  0  0  0  0
    2.3110   -1.1219    2.9615 C   0  0  0  0  0  0  0  0  0  0  0  0
    0.9457   -0.9429    3.1273 C   0  0  0  0  0  0  0  0  0  0  0  0
    1.9263   -1.5790    5.0340 C   0  0  0  0  0  0  0  0  0  0  0  0
    3.1321   -2.2569    6.9973 C   0  3  0  0  0  0  0  0  0  0  0  0
    2.8988   -1.5128    4.1401 N   0  0  0  0  0  0  0  0  0  0  0  0
    0.7277   -1.2401    4.4470 N   0  0  0  0  0  0  0  0  0  0  0  0
    4.3112   -2.2914    6.3721 N   0  0  0  0  0  0  0  0  0  0  0  0
    3.0986   -2.5705    8.2978 N   0  0  0  0  0  0  0  0  0  0  0  0
    1.9876   -1.9205    6.3702 N   0  0  0  0  0  0  0  0  0  0  0  0
    2.4748   -0.3169   -0.3367 H   0  0  0  0  0  0  0  0  0  0  0  0
    0.0472   -0.0117    0.0138 H   0  0  0  0  0  0  0  0  0  0  0  0
    3.9483   -1.0299    1.5439 H   0  0  0  0  0  0  0  0  0  0  0  0
   -0.9774   -0.4121    2.2574 H   0  0  0  0  0  0  0  0  0  0  0  0
   -0.1618   -1.2153    4.9215 H   0  0  0  0  0  0  0  0  0  0  0  0
    5.1612   -2.5445    6.8523 H   0  0  0  0  0  0  0  0  0  0  0  0
    4.3455   -2.0543    5.3843 H   0  0  0  0  0  0  0  0  0  0  0  0
    3.9453   -2.8245    8.7867 H   0  0  0  0  0  0  0  0  0  0  0  0
    2.2325   -2.5593    8.8177 H   0  0  0  0  0  0  0  0  0  0  0  0
    1.1566   -1.9311    6.9488 H   0  0  0  0  0  0  0  0  0  0  0  0
  1  2  2  0  0  0  0
  1  3  1  0  0  0  0
  2  4  1  0  0  0  0
  3  5  2  0  0  0  0
  4  6  2  0  0  0  0
  5  6  1  0  0  0  0
  5  9  1  0  0  0  0
  6 10  1  0  0  0  0
  7  9  2  0  0  0  0
  7 10  1  0  0  0  0
  7 13  1  0  0  0  0
  8 11  1  0  0  0  0
  8 12  1  0  0  0  0
  8 13  1  0  0  0  0
  1 14  1  0  0  0  0
  2 15  1  0  0  0  0
  3 16  1  0  0  0  0
  4 17  1  0  0  0  0
 10 18  1  0  0  0  0
 11 19  1  0  0  0  0
 11 20  1  0  0  0  0
 12 21  1  0  0  0  0
 12 22  1  0  0  0  0
 13 23  1  0  0  0  0
M  CHG  1   8   1
M  END
> <MM Szybki Single Point Energy>
-266.597305479771

> <MM Szybki SD Energy>
-273.679403818895

$$$$
