AlkEthOH_c312
  -OEChem-03281916063D

 20 19  0     0  0  0  0  0  0999 V2000
    0.4982   -0.7977    0.5591 C   0  0  0  0  0  0  0  0  0  0  0  0
    0.2505    0.5371    2.6617 C   0  0  0  0  0  0  0  0  0  0  0  0
    1.2229   -2.3967    3.1592 C   0  0  0  0  0  0  0  0  0  0  0  0
    3.2043   -1.8465    1.7326 C   0  0  0  0  0  0  0  0  0  0  0  0
    1.2399   -0.2158    1.7657 C   0  0  0  0  0  0  0  0  0  0  0  0
    2.0620   -1.2598    2.5689 C   0  0  0  0  0  0  0  0  0  0  0  0
   -0.2509   -1.5367    0.8595 H   0  0  0  0  0  0  0  0  0  0  0  0
   -0.0241   -0.0041    0.0129 H   0  0  0  0  0  0  0  0  0  0  0  0
    1.1876   -1.2725   -0.1449 H   0  0  0  0  0  0  0  0  0  0  0  0
   -0.5522   -0.1143    3.0209 H   0  0  0  0  0  0  0  0  0  0  0  0
    0.7593    0.9675    3.5305 H   0  0  0  0  0  0  0  0  0  0  0  0
   -0.2162    1.3607    2.1101 H   0  0  0  0  0  0  0  0  0  0  0  0
    0.7462   -2.9980    2.3791 H   0  0  0  0  0  0  0  0  0  0  0  0
    1.8539   -3.0685    3.7521 H   0  0  0  0  0  0  0  0  0  0  0  0
    0.4435   -2.0162    3.8256 H   0  0  0  0  0  0  0  0  0  0  0  0
    2.8322   -2.4704    0.9140 H   0  0  0  0  0  0  0  0  0  0  0  0
    3.8528   -2.4729    2.3550 H   0  0  0  0  0  0  0  0  0  0  0  0
    3.8239   -1.0514    1.3051 H   0  0  0  0  0  0  0  0  0  0  0  0
    1.9481    0.5312    1.3815 H   0  0  0  0  0  0  0  0  0  0  0  0
    2.5280   -0.7301    3.4110 H   0  0  0  0  0  0  0  0  0  0  0  0
  1  5  1  0  0  0  0
  2  5  1  0  0  0  0
  3  6  1  0  0  0  0
  4  6  1  0  0  0  0
  5  6  1  0  0  0  0
  1  7  1  0  0  0  0
  1  8  1  0  0  0  0
  1  9  1  0  0  0  0
  2 10  1  0  0  0  0
  2 11  1  0  0  0  0
  2 12  1  0  0  0  0
  3 13  1  0  0  0  0
  3 14  1  0  0  0  0
  3 15  1  0  0  0  0
  4 16  1  0  0  0  0
  4 17  1  0  0  0  0
  4 18  1  0  0  0  0
  5 19  1  0  0  0  0
  6 20  1  0  0  0  0
M  END
> <MM Szybki Single Point Energy>
6.850269178483

> <MM Szybki SD Energy>
6.409086560387

$$$$
AlkEthOH_c312
  -OEChem-03281916063D

 20 19  0     0  0  0  0  0  0999 V2000
    0.6296   -0.7212    0.5031 C   0  0  0  0  0  0  0  0  0  0  0  0
    0.1580    0.4222    2.6790 C   0  0  0  0  0  0  0  0  0  0  0  0
    1.3445   -2.5292    2.8813 C   0  0  0  0  0  0  0  0  0  0  0  0
    3.4011   -1.5563    1.8379 C   0  0  0  0  0  0  0  0  0  0  0  0
    1.2531   -0.1841    1.7945 C   0  0  0  0  0  0  0  0  0  0  0  0
    2.0954   -1.2313    2.5716 C   0  0  0  0  0  0  0  0  0  0  0  0
   -0.1224   -1.4905    0.7052 H   0  0  0  0  0  0  0  0  0  0  0  0
    0.1312    0.0870   -0.0440 H   0  0  0  0  0  0  0  0  0  0  0  0
    1.3860   -1.1463   -0.1627 H   0  0  0  0  0  0  0  0  0  0  0  0
   -0.5971   -0.3178    2.9603 H   0  0  0  0  0  0  0  0  0  0  0  0
    0.5858    0.8410    3.5961 H   0  0  0  0  0  0  0  0  0  0  0  0
   -0.3541    1.2354    2.1528 H   0  0  0  0  0  0  0  0  0  0  0  0
    1.1038   -3.0856    1.9694 H   0  0  0  0  0  0  0  0  0  0  0  0
    1.9579   -3.1835    3.5106 H   0  0  0  0  0  0  0  0  0  0  0  0
    0.4137   -2.3367    3.4222 H   0  0  0  0  0  0  0  0  0  0  0  0
    3.2194   -2.0669    0.8870 H   0  0  0  0  0  0  0  0  0  0  0  0
    4.0331   -2.2095    2.4496 H   0  0  0  0  0  0  0  0  0  0  0  0
    3.9705   -0.6438    1.6333 H   0  0  0  0  0  0  0  0  0  0  0  0
    1.9238    0.6398    1.5161 H   0  0  0  0  0  0  0  0  0  0  0  0
    2.3794   -0.7805    3.5325 H   0  0  0  0  0  0  0  0  0  0  0  0
  1  5  1  0  0  0  0
  2  5  1  0  0  0  0
  3  6  1  0  0  0  0
  4  6  1  0  0  0  0
  5  6  1  0  0  0  0
  1  7  1  0  0  0  0
  1  8  1  0  0  0  0
  1  9  1  0  0  0  0
  2 10  1  0  0  0  0
  2 11  1  0  0  0  0
  2 12  1  0  0  0  0
  3 13  1  0  0  0  0
  3 14  1  0  0  0  0
  3 15  1  0  0  0  0
  4 16  1  0  0  0  0
  4 17  1  0  0  0  0
  4 18  1  0  0  0  0
  5 19  1  0  0  0  0
  6 20  1  0  0  0  0
M  END
> <MM Szybki Single Point Energy>
7.858090371658

> <MM Szybki SD Energy>
6.481418685582

$$$$
AlkEthOH_c312
  -OEChem-03281916063D

 20 19  0     0  0  0  0  0  0999 V2000
    0.5527   -0.7676    0.5493 C   0  0  0  0  0  0  0  0  0  0  0  0
    0.1892    0.5293    2.6589 C   0  0  0  0  0  0  0  0  0  0  0  0
    2.8536   -0.6755    3.7122 C   0  0  0  0  0  0  0  0  0  0  0  0
    1.1901   -2.4394    3.0907 C   0  0  0  0  0  0  0  0  0  0  0  0
    1.2289   -0.1961    1.8000 C   0  0  0  0  0  0  0  0  0  0  0  0
    2.0388   -1.2790    2.5632 C   0  0  0  0  0  0  0  0  0  0  0  0
   -0.2603   -1.4550    0.8039 H   0  0  0  0  0  0  0  0  0  0  0  0
    0.1238    0.0382   -0.0565 H   0  0  0  0  0  0  0  0  0  0  0  0
    1.2742   -1.3037   -0.0758 H   0  0  0  0  0  0  0  0  0  0  0  0
   -0.5738   -0.1562    3.0400 H   0  0  0  0  0  0  0  0  0  0  0  0
    0.6548    1.0342    3.5103 H   0  0  0  0  0  0  0  0  0  0  0  0
   -0.3233    1.2985    2.0703 H   0  0  0  0  0  0  0  0  0  0  0  0
    2.2117   -0.3245    4.5264 H   0  0  0  0  0  0  0  0  0  0  0  0
    3.5366   -1.4227    4.1312 H   0  0  0  0  0  0  0  0  0  0  0  0
    3.4588    0.1673    3.3627 H   0  0  0  0  0  0  0  0  0  0  0  0
    0.4440   -2.1012    3.8160 H   0  0  0  0  0  0  0  0  0  0  0  0
    1.8242   -3.1799    3.5912 H   0  0  0  0  0  0  0  0  0  0  0  0
    0.6714   -2.9576    2.2789 H   0  0  0  0  0  0  0  0  0  0  0  0
    1.9460    0.5606    1.4531 H   0  0  0  0  0  0  0  0  0  0  0  0
    2.7615   -1.7039    1.8530 H   0  0  0  0  0  0  0  0  0  0  0  0
  1  5  1  0  0  0  0
  2  5  1  0  0  0  0
  3  6  1  0  0  0  0
  4  6  1  0  0  0  0
  5  6  1  0  0  0  0
  1  7  1  0  0  0  0
  1  8  1  0  0  0  0
  1  9  1  0  0  0  0
  2 10  1  0  0  0  0
  2 11  1  0  0  0  0
  2 12  1  0  0  0  0
  3 13  1  0  0  0  0
  3 14  1  0  0  0  0
  3 15  1  0  0  0  0
  4 16  1  0  0  0  0
  4 17  1  0  0  0  0
  4 18  1  0  0  0  0
  5 19  1  0  0  0  0
  6 20  1  0  0  0  0
M  END
> <MM Szybki Single Point Energy>
7.942170901512

> <MM Szybki SD Energy>
6.436079141647

$$$$
AlkEthOH_c312
  -OEChem-03281916063D

 20 19  0     0  0  0  0  0  0999 V2000
    0.4314   -0.8355    0.5973 C   0  0  0  0  0  0  0  0  0  0  0  0
    0.3414    0.6149    2.6199 C   0  0  0  0  0  0  0  0  0  0  0  0
    2.8544   -2.2416    1.6575 C   0  0  0  0  0  0  0  0  0  0  0  0
    2.9862   -0.6525    3.5707 C   0  0  0  0  0  0  0  0  0  0  0  0
    1.2670   -0.2225    1.7276 C   0  0  0  0  0  0  0  0  0  0  0  0
    2.0402   -1.2945    2.5472 C   0  0  0  0  0  0  0  0  0  0  0  0
   -0.2498   -1.6032    0.9787 H   0  0  0  0  0  0  0  0  0  0  0  0
   -0.1692   -0.0688    0.0953 H   0  0  0  0  0  0  0  0  0  0  0  0
    1.0688   -1.2879   -0.1688 H   0  0  0  0  0  0  0  0  0  0  0  0
   -0.3730   -0.0206    3.1542 H   0  0  0  0  0  0  0  0  0  0  0  0
    0.9052    1.1928    3.3576 H   0  0  0  0  0  0  0  0  0  0  0  0
   -0.2298    1.3341    2.0223 H   0  0  0  0  0  0  0  0  0  0  0  0
    3.5328   -1.6854    1.0022 H   0  0  0  0  0  0  0  0  0  0  0  0
    3.4561   -2.9273    2.2644 H   0  0  0  0  0  0  0  0  0  0  0  0
    2.2024   -2.8617    1.0346 H   0  0  0  0  0  0  0  0  0  0  0  0
    3.7010    0.0178    3.0814 H   0  0  0  0  0  0  0  0  0  0  0  0
    3.5567   -1.4183    4.1078 H   0  0  0  0  0  0  0  0  0  0  0  0
    2.4381   -0.0791    4.3237 H   0  0  0  0  0  0  0  0  0  0  0  0
    1.9935    0.4597    1.2670 H   0  0  0  0  0  0  0  0  0  0  0  0
    1.3147   -1.9052    3.1005 H   0  0  0  0  0  0  0  0  0  0  0  0
  1  5  1  0  0  0  0
  2  5  1  0  0  0  0
  3  6  1  0  0  0  0
  4  6  1  0  0  0  0
  5  6  1  0  0  0  0
  1  7  1  0  0  0  0
  1  8  1  0  0  0  0
  1  9  1  0  0  0  0
  2 10  1  0  0  0  0
  2 11  1  0  0  0  0
  2 12  1  0  0  0  0
  3 13  1  0  0  0  0
  3 14  1  0  0  0  0
  3 15  1  0  0  0  0
  4 16  1  0  0  0  0
  4 17  1  0  0  0  0
  4 18  1  0  0  0  0
  5 19  1  0  0  0  0
  6 20  1  0  0  0  0
M  END
> <MM Szybki Single Point Energy>
7.977598597311

> <MM Szybki SD Energy>
6.736580988585

$$$$
AlkEthOH_c312
  -OEChem-03281916063D

 20 19  0     0  0  0  0  0  0999 V2000
    0.5464   -0.7868    0.5620 C   0  0  0  0  0  0  0  0  0  0  0  0
    0.2299    0.5540    2.6359 C   0  0  0  0  0  0  0  0  0  0  0  0
    3.0994   -1.9726    1.7363 C   0  0  0  0  0  0  0  0  0  0  0  0
    2.7249   -0.6755    3.8282 C   0  0  0  0  0  0  0  0  0  0  0  0
    1.2636   -0.1863    1.7779 C   0  0  0  0  0  0  0  0  0  0  0  0
    2.0391   -1.2633    2.5885 C   0  0  0  0  0  0  0  0  0  0  0  0
   -0.1330   -1.5920    0.8616 H   0  0  0  0  0  0  0  0  0  0  0  0
   -0.0437   -0.0243    0.0415 H   0  0  0  0  0  0  0  0  0  0  0  0
    1.2563   -1.1883   -0.1667 H   0  0  0  0  0  0  0  0  0  0  0  0
   -0.4692   -0.1462    3.1055 H   0  0  0  0  0  0  0  0  0  0  0  0
    0.7097    1.1430    3.4231 H   0  0  0  0  0  0  0  0  0  0  0  0
   -0.3520    1.2552    2.0274 H   0  0  0  0  0  0  0  0  0  0  0  0
    3.8047   -1.2544    1.3045 H   0  0  0  0  0  0  0  0  0  0  0  0
    3.6716   -2.6854    2.3403 H   0  0  0  0  0  0  0  0  0  0  0  0
    2.6456   -2.5428    0.9207 H   0  0  0  0  0  0  0  0  0  0  0  0
    3.3906    0.1511    3.5577 H   0  0  0  0  0  0  0  0  0  0  0  0
    3.3231   -1.4368    4.3411 H   0  0  0  0  0  0  0  0  0  0  0  0
    1.9942   -0.3069    4.5541 H   0  0  0  0  0  0  0  0  0  0  0  0
    1.9804    0.5583    1.4069 H   0  0  0  0  0  0  0  0  0  0  0  0
    1.3264   -2.0241    2.9335 H   0  0  0  0  0  0  0  0  0  0  0  0
  1  5  1  0  0  0  0
  2  5  1  0  0  0  0
  3  6  1  0  0  0  0
  4  6  1  0  0  0  0
  5  6  1  0  0  0  0
  1  7  1  0  0  0  0
  1  8  1  0  0  0  0
  1  9  1  0  0  0  0
  2 10  1  0  0  0  0
  2 11  1  0  0  0  0
  2 12  1  0  0  0  0
  3 13  1  0  0  0  0
  3 14  1  0  0  0  0
  3 15  1  0  0  0  0
  4 16  1  0  0  0  0
  4 17  1  0  0  0  0
  4 18  1  0  0  0  0
  5 19  1  0  0  0  0
  6 20  1  0  0  0  0
M  END
> <MM Szybki Single Point Energy>
8.318535491412

> <MM Szybki SD Energy>
6.644413830261

$$$$
AlkEthOH_c312
  -OEChem-03281916063D

 20 19  0     0  0  0  0  0  0999 V2000
    0.4639   -0.8405    0.6183 C   0  0  0  0  0  0  0  0  0  0  0  0
    0.3020    0.6260    2.6400 C   0  0  0  0  0  0  0  0  0  0  0  0
    3.1112   -0.6055    3.4652 C   0  0  0  0  0  0  0  0  0  0  0  0
    1.2080   -2.2285    3.3766 C   0  0  0  0  0  0  0  0  0  0  0  0
    1.2501   -0.2028    1.7690 C   0  0  0  0  0  0  0  0  0  0  0  0
    2.0671   -1.2627    2.5558 C   0  0  0  0  0  0  0  0  0  0  0  0
   -0.3272   -1.5036    0.9818 H   0  0  0  0  0  0  0  0  0  0  0  0
   -0.0089   -0.0678    0.0021 H   0  0  0  0  0  0  0  0  0  0  0  0
    1.1264   -1.4213   -0.0318 H   0  0  0  0  0  0  0  0  0  0  0  0
   -0.4950    0.0112    3.0706 H   0  0  0  0  0  0  0  0  0  0  0  0
    0.8348    1.1201    3.4574 H   0  0  0  0  0  0  0  0  0  0  0  0
   -0.1765    1.4102    2.0428 H   0  0  0  0  0  0  0  0  0  0  0  0
    2.6467   -0.0377    4.2772 H   0  0  0  0  0  0  0  0  0  0  0  0
    3.7570   -1.3650    3.9194 H   0  0  0  0  0  0  0  0  0  0  0  0
    3.7526    0.0744    2.8946 H   0  0  0  0  0  0  0  0  0  0  0  0
    0.6803   -1.7142    4.1862 H   0  0  0  0  0  0  0  0  0  0  0  0
    1.8355   -3.0014    3.8347 H   0  0  0  0  0  0  0  0  0  0  0  0
    0.4682   -2.7384    2.7532 H   0  0  0  0  0  0  0  0  0  0  0  0
    1.9665    0.4934    1.3119 H   0  0  0  0  0  0  0  0  0  0  0  0
    2.6228   -1.8624    1.8221 H   0  0  0  0  0  0  0  0  0  0  0  0
  1  5  1  0  0  0  0
  2  5  1  0  0  0  0
  3  6  1  0  0  0  0
  4  6  1  0  0  0  0
  5  6  1  0  0  0  0
  1  7  1  0  0  0  0
  1  8  1  0  0  0  0
  1  9  1  0  0  0  0
  2 10  1  0  0  0  0
  2 11  1  0  0  0  0
  2 12  1  0  0  0  0
  3 13  1  0  0  0  0
  3 14  1  0  0  0  0
  3 15  1  0  0  0  0
  4 16  1  0  0  0  0
  4 17  1  0  0  0  0
  4 18  1  0  0  0  0
  5 19  1  0  0  0  0
  6 20  1  0  0  0  0
M  END
> <MM Szybki Single Point Energy>
8.344955559787

> <MM Szybki SD Energy>
6.447924457476

$$$$
AlkEthOH_c312
  -OEChem-03281916063D

 20 19  0     0  0  0  0  0  0999 V2000
    0.3629   -0.8660    0.6451 C   0  0  0  0  0  0  0  0  0  0  0  0
    0.3536    0.6547    2.6332 C   0  0  0  0  0  0  0  0  0  0  0  0
    1.1645   -2.2095    3.4285 C   0  0  0  0  0  0  0  0  0  0  0  0
    2.9785   -2.1010    1.7071 C   0  0  0  0  0  0  0  0  0  0  0  0
    1.2244   -0.2421    1.7469 C   0  0  0  0  0  0  0  0  0  0  0  0
    2.0313   -1.2732    2.5820 C   0  0  0  0  0  0  0  0  0  0  0  0
   -0.3838   -1.5540    1.0522 H   0  0  0  0  0  0  0  0  0  0  0  0
   -0.1722   -0.0871    0.0903 H   0  0  0  0  0  0  0  0  0  0  0  0
    0.9750   -1.4114   -0.0795 H   0  0  0  0  0  0  0  0  0  0  0  0
   -0.4859    0.1036    3.0689 H   0  0  0  0  0  0  0  0  0  0  0  0
    0.9411    1.0899    3.4484 H   0  0  0  0  0  0  0  0  0  0  0  0
   -0.0648    1.4811    2.0481 H   0  0  0  0  0  0  0  0  0  0  0  0
    0.4873   -2.8072    2.8106 H   0  0  0  0  0  0  0  0  0  0  0  0
    1.7930   -2.9040    3.9971 H   0  0  0  0  0  0  0  0  0  0  0  0
    0.5659   -1.6519    4.1548 H   0  0  0  0  0  0  0  0  0  0  0  0
    2.4322   -2.8010    1.0664 H   0  0  0  0  0  0  0  0  0  0  0  0
    3.6591   -2.6908    2.3310 H   0  0  0  0  0  0  0  0  0  0  0  0
    3.5896   -1.4544    1.0693 H   0  0  0  0  0  0  0  0  0  0  0  0
    1.9537    0.4140    1.2525 H   0  0  0  0  0  0  0  0  0  0  0  0
    2.6617   -0.7019    3.2777 H   0  0  0  0  0  0  0  0  0  0  0  0
  1  5  1  0  0  0  0
  2  5  1  0  0  0  0
  3  6  1  0  0  0  0
  4  6  1  0  0  0  0
  5  6  1  0  0  0  0
  1  7  1  0  0  0  0
  1  8  1  0  0  0  0
  1  9  1  0  0  0  0
  2 10  1  0  0  0  0
  2 11  1  0  0  0  0
  2 12  1  0  0  0  0
  3 13  1  0  0  0  0
  3 14  1  0  0  0  0
  3 15  1  0  0  0  0
  4 16  1  0  0  0  0
  4 17  1  0  0  0  0
  4 18  1  0  0  0  0
  5 19  1  0  0  0  0
  6 20  1  0  0  0  0
M  END
> <MM Szybki Single Point Energy>
9.046684412039

> <MM Szybki SD Energy>
6.519788776264

$$$$
AlkEthOH_c312
  -OEChem-03281916063D

 20 19  0     0  0  0  0  0  0999 V2000
    0.6712   -0.6718    0.4731 C   0  0  0  0  0  0  0  0  0  0  0  0
    0.0586    0.3881    2.6565 C   0  0  0  0  0  0  0  0  0  0  0  0
    2.6136   -0.8022    3.8738 C   0  0  0  0  0  0  0  0  0  0  0  0
    1.2302   -2.5922    2.8026 C   0  0  0  0  0  0  0  0  0  0  0  0
    1.2066   -0.1944    1.8271 C   0  0  0  0  0  0  0  0  0  0  0  0
    2.0169   -1.3021    2.5540 C   0  0  0  0  0  0  0  0  0  0  0  0
   -0.1315   -1.4071    0.5905 H   0  0  0  0  0  0  0  0  0  0  0  0
    0.2631    0.1706   -0.0962 H   0  0  0  0  0  0  0  0  0  0  0  0
    1.4679   -1.1230   -0.1271 H   0  0  0  0  0  0  0  0  0  0  0  0
   -0.6709   -0.3776    2.9366 H   0  0  0  0  0  0  0  0  0  0  0  0
    0.4279    0.8626    3.5706 H   0  0  0  0  0  0  0  0  0  0  0  0
   -0.4724    1.1597    2.0878 H   0  0  0  0  0  0  0  0  0  0  0  0
    1.8418   -0.6429    4.6338 H   0  0  0  0  0  0  0  0  0  0  0  0
    3.3227   -1.5344    4.2754 H   0  0  0  0  0  0  0  0  0  0  0  0
    3.1547    0.1385    3.7287 H   0  0  0  0  0  0  0  0  0  0  0  0
    0.3455   -2.4170    3.4217 H   0  0  0  0  0  0  0  0  0  0  0  0
    1.8555   -3.3293    3.3188 H   0  0  0  0  0  0  0  0  0  0  0  0
    0.9075   -3.0498    1.8625 H   0  0  0  0  0  0  0  0  0  0  0  0
    1.9030    0.6299    1.6194 H   0  0  0  0  0  0  0  0  0  0  0  0
    2.8626   -1.5621    1.9025 H   0  0  0  0  0  0  0  0  0  0  0  0
  1  5  1  0  0  0  0
  2  5  1  0  0  0  0
  3  6  1  0  0  0  0
  4  6  1  0  0  0  0
  5  6  1  0  0  0  0
  1  7  1  0  0  0  0
  1  8  1  0  0  0  0
  1  9  1  0  0  0  0
  2 10  1  0  0  0  0
  2 11  1  0  0  0  0
  2 12  1  0  0  0  0
  3 13  1  0  0  0  0
  3 14  1  0  0  0  0
  3 15  1  0  0  0  0
  4 16  1  0  0  0  0
  4 17  1  0  0  0  0
  4 18  1  0  0  0  0
  5 19  1  0  0  0  0
  6 20  1  0  0  0  0
M  END
> <MM Szybki Single Point Energy>
10.589630573608

> <MM Szybki SD Energy>
6.570728442047

$$$$
AlkEthOH_c312
  -OEChem-03281916063D

 20 19  0     0  0  0  0  0  0999 V2000
    0.6730   -0.7134    0.5289 C   0  0  0  0  0  0  0  0  0  0  0  0
    0.1058    0.4795    2.6400 C   0  0  0  0  0  0  0  0  0  0  0  0
    3.2651   -1.7215    1.8899 C   0  0  0  0  0  0  0  0  0  0  0  0
    2.4324   -0.7686    4.0347 C   0  0  0  0  0  0  0  0  0  0  0  0
    1.2481   -0.1537    1.8368 C   0  0  0  0  0  0  0  0  0  0  0  0
    2.0136   -1.2443    2.6386 C   0  0  0  0  0  0  0  0  0  0  0  0
   -0.0033   -1.5532    0.7231 H   0  0  0  0  0  0  0  0  0  0  0  0
    0.1074    0.0558   -0.0084 H   0  0  0  0  0  0  0  0  0  0  0  0
    1.4614   -1.0577   -0.1460 H   0  0  0  0  0  0  0  0  0  0  0  0
   -0.5834   -0.2827    3.0186 H   0  0  0  0  0  0  0  0  0  0  0  0
    0.4876    1.0539    3.4897 H   0  0  0  0  0  0  0  0  0  0  0  0
   -0.4681    1.1771    2.0200 H   0  0  0  0  0  0  0  0  0  0  0  0
    3.9448   -0.8868    1.6859 H   0  0  0  0  0  0  0  0  0  0  0  0
    3.8130   -2.4638    2.4809 H   0  0  0  0  0  0  0  0  0  0  0  0
    3.0117   -2.1971    0.9385 H   0  0  0  0  0  0  0  0  0  0  0  0
    3.0148    0.1572    3.9804 H   0  0  0  0  0  0  0  0  0  0  0  0
    3.0447   -1.5249    4.5380 H   0  0  0  0  0  0  0  0  0  0  0  0
    1.5611   -0.5927    4.6731 H   0  0  0  0  0  0  0  0  0  0  0  0
    1.9506    0.6493    1.5762 H   0  0  0  0  0  0  0  0  0  0  0  0
    1.3530   -2.1115    2.7717 H   0  0  0  0  0  0  0  0  0  0  0  0
  1  5  1  0  0  0  0
  2  5  1  0  0  0  0
  3  6  1  0  0  0  0
  4  6  1  0  0  0  0
  5  6  1  0  0  0  0
  1  7  1  0  0  0  0
  1  8  1  0  0  0  0
  1  9  1  0  0  0  0
  2 10  1  0  0  0  0
  2 11  1  0  0  0  0
  2 12  1  0  0  0  0
  3 13  1  0  0  0  0
  3 14  1  0  0  0  0
  3 15  1  0  0  0  0
  4 16  1  0  0  0  0
  4 17  1  0  0  0  0
  4 18  1  0  0  0  0
  5 19  1  0  0  0  0
  6 20  1  0  0  0  0
M  END
> <MM Szybki Single Point Energy>
10.641176963399

> <MM Szybki SD Energy>
6.799284814370

$$$$
AlkEthOH_c1008
  -OEChem-03281916063D

 14 13  0     0  0  0  0  0  0999 V2000
    0.4020   -0.7274    0.7094 C   0  0  0  0  0  0  0  0  0  0  0  0
    2.5434    1.6212    2.9184 C   0  0  0  0  0  0  0  0  0  0  0  0
    1.6360   -0.1809    1.4096 C   0  0  0  0  0  0  0  0  0  0  0  0
    1.3154    1.0866    2.1991 C   0  0  0  0  0  0  0  0  0  0  0  0
   -0.0135    0.0088    0.0139 H   0  0  0  0  0  0  0  0  0  0  0  0
    0.6561   -1.6272    0.1405 H   0  0  0  0  0  0  0  0  0  0  0  0
   -0.3744   -0.9922    1.4342 H   0  0  0  0  0  0  0  0  0  0  0  0
    2.9450    0.8780    3.6147 H   0  0  0  0  0  0  0  0  0  0  0  0
    2.2869    2.5184    3.4903 H   0  0  0  0  0  0  0  0  0  0  0  0
    3.3312    1.8859    2.2059 H   0  0  0  0  0  0  0  0  0  0  0  0
    2.0363   -0.9484    2.0824 H   0  0  0  0  0  0  0  0  0  0  0  0
    2.4100    0.0313    0.6629 H   0  0  0  0  0  0  0  0  0  0  0  0
    0.9298    1.8588    1.5230 H   0  0  0  0  0  0  0  0  0  0  0  0
    0.5300    0.8786    2.9349 H   0  0  0  0  0  0  0  0  0  0  0  0
  1  3  1  0  0  0  0
  2  4  1  0  0  0  0
  3  4  1  0  0  0  0
  1  5  1  0  0  0  0
  1  6  1  0  0  0  0
  1  7  1  0  0  0  0
  2  8  1  0  0  0  0
  2  9  1  0  0  0  0
  2 10  1  0  0  0  0
  3 11  1  0  0  0  0
  3 12  1  0  0  0  0
  4 13  1  0  0  0  0
  4 14  1  0  0  0  0
M  END
> <MM Szybki Single Point Energy>
-5.042744852431

> <MM Szybki SD Energy>
-5.069941620715

$$$$
AlkEthOH_c1008
  -OEChem-03281916063D

 14 13  0     0  0  0  0  0  0999 V2000
    0.4054   -0.7861    0.7011 C   0  0  0  0  0  0  0  0  0  0  0  0
    0.8210    2.2481    1.3076 C   0  0  0  0  0  0  0  0  0  0  0  0
    1.6177   -0.1733    1.3852 C   0  0  0  0  0  0  0  0  0  0  0  0
    1.2948    1.0939    2.1776 C   0  0  0  0  0  0  0  0  0  0  0  0
   -0.0013   -0.1216   -0.0668 H   0  0  0  0  0  0  0  0  0  0  0  0
    0.6850   -1.7248    0.2120 H   0  0  0  0  0  0  0  0  0  0  0  0
   -0.3857   -1.0041    1.4254 H   0  0  0  0  0  0  0  0  0  0  0  0
    1.5479    2.4712    0.5204 H   0  0  0  0  0  0  0  0  0  0  0  0
    0.6931    3.1492    1.9160 H   0  0  0  0  0  0  0  0  0  0  0  0
   -0.1419    2.0272    0.8378 H   0  0  0  0  0  0  0  0  0  0  0  0
    2.0425   -0.9149    2.0723 H   0  0  0  0  0  0  0  0  0  0  0  0
    2.3882    0.0423    0.6359 H   0  0  0  0  0  0  0  0  0  0  0  0
    0.5360    0.8755    2.9379 H   0  0  0  0  0  0  0  0  0  0  0  0
    2.1986    1.4090    2.7129 H   0  0  0  0  0  0  0  0  0  0  0  0
  1  3  1  0  0  0  0
  2  4  1  0  0  0  0
  3  4  1  0  0  0  0
  1  5  1  0  0  0  0
  1  6  1  0  0  0  0
  1  7  1  0  0  0  0
  2  8  1  0  0  0  0
  2  9  1  0  0  0  0
  2 10  1  0  0  0  0
  3 11  1  0  0  0  0
  3 12  1  0  0  0  0
  4 13  1  0  0  0  0
  4 14  1  0  0  0  0
M  END
> <MM Szybki Single Point Energy>
-3.134229093462

> <MM Szybki SD Energy>
-4.289929710088

$$$$
AlkEthOH_c1008
  -OEChem-03281916063D

 14 13  0     0  0  0  0  0  0999 V2000
    0.4216   -0.7655    0.6578 C   0  0  0  0  0  0  0  0  0  0  0  0
    0.2496    0.8834    3.2933 C   0  0  0  0  0  0  0  0  0  0  0  0
    1.6069   -0.1960    1.4221 C   0  0  0  0  0  0  0  0  0  0  0  0
    1.2786    1.0839    2.1914 C   0  0  0  0  0  0  0  0  0  0  0  0
   -0.0110   -0.0164   -0.0127 H   0  0  0  0  0  0  0  0  0  0  0  0
    0.7407   -1.6194    0.0516 H   0  0  0  0  0  0  0  0  0  0  0  0
   -0.3612   -1.1166    1.3367 H   0  0  0  0  0  0  0  0  0  0  0  0
   -0.7260    0.6038    2.8849 H   0  0  0  0  0  0  0  0  0  0  0  0
    0.1178    1.8123    3.8574 H   0  0  0  0  0  0  0  0  0  0  0  0
    0.5691    0.1045    3.9926 H   0  0  0  0  0  0  0  0  0  0  0  0
    1.9947   -0.9558    2.1105 H   0  0  0  0  0  0  0  0  0  0  0  0
    2.4097    0.0240    0.7081 H   0  0  0  0  0  0  0  0  0  0  0  0
    2.2027    1.4659    2.6417 H   0  0  0  0  0  0  0  0  0  0  0  0
    0.9226    1.8541    1.4975 H   0  0  0  0  0  0  0  0  0  0  0  0
  1  3  1  0  0  0  0
  2  4  1  0  0  0  0
  3  4  1  0  0  0  0
  1  5  1  0  0  0  0
  1  6  1  0  0  0  0
  1  7  1  0  0  0  0
  2  8  1  0  0  0  0
  2  9  1  0  0  0  0
  2 10  1  0  0  0  0
  3 11  1  0  0  0  0
  3 12  1  0  0  0  0
  4 13  1  0  0  0  0
  4 14  1  0  0  0  0
M  END
> <MM Szybki Single Point Energy>
-2.775653954593

> <MM Szybki SD Energy>
-4.286880060522

$$$$
