Div_3
  -OEChem-03131713003D

 23 24  0     0  0  0  0  0  0999 V2000
   -0.0277    0.8874   -3.5224 C   0  0  0  0  0  0  0  0  0  0  0  0
   -1.4079    1.0643   -3.3447 C   0  0  0  0  0  0  0  0  0  0  0  0
    0.7943    0.4937   -2.4794 C   0  0  0  0  0  0  0  0  0  0  0  0
   -2.0176    0.8540   -2.1169 C   0  0  0  0  0  0  0  0  0  0  0  0
    0.1977    0.2787   -1.2414 C   0  0  0  0  0  0  0  0  0  0  0  0
   -1.1878    0.4601   -1.0782 C   0  0  0  0  0  0  0  0  0  0  0  0
   -0.2375   -0.1660    0.8128 C   0  0  0  0  0  0  0  0  0  0  0  0
    1.0411   -0.8595    2.7677 C   0  3  0  0  0  0  0  0  0  0  0  0
    0.7584   -0.1167   -0.0262 N   0  0  0  0  0  0  0  0  0  0  0  0
   -1.4390    0.1635    0.2634 N   0  0  0  0  0  0  0  0  0  0  0  0
    2.1582   -0.8646    2.0741 N   0  0  0  0  0  0  0  0  0  0  0  0
    1.0089   -1.1792    4.0656 N   0  0  0  0  0  0  0  0  0  0  0  0
   -0.1196   -0.5219    2.1595 N   0  0  0  0  0  0  0  0  0  0  0  0
    0.4017    1.0634   -4.4988 H   0  0  0  0  0  0  0  0  0  0  0  0
   -2.0124    1.3725   -4.1864 H   0  0  0  0  0  0  0  0  0  0  0  0
    1.8578    0.3570   -2.6155 H   0  0  0  0  0  0  0  0  0  0  0  0
   -3.0819    0.9916   -1.9850 H   0  0  0  0  0  0  0  0  0  0  0  0
   -2.3366    0.1939    0.7170 H   0  0  0  0  0  0  0  0  0  0  0  0
    3.0363   -1.1107    2.4995 H   0  0  0  0  0  0  0  0  0  0  0  0
    2.0812   -0.6027    1.0751 H   0  0  0  0  0  0  0  0  0  0  0  0
    1.8504   -1.4362    4.5529 H   0  0  0  0  0  0  0  0  0  0  0  0
    0.1553   -1.1742    4.5966 H   0  0  0  0  0  0  0  0  0  0  0  0
   -0.9592   -0.5280    2.7152 H   0  0  0  0  0  0  0  0  0  0  0  0
  1  2  2  0  0  0  0
  1  3  1  0  0  0  0
  2  4  1  0  0  0  0
  3  5  2  0  0  0  0
  4  6  2  0  0  0  0
  5  6  1  0  0  0  0
  5  9  1  0  0  0  0
  6 10  1  0  0  0  0
  7  9  2  0  0  0  0
  7 10  1  0  0  0  0
  7 13  1  0  0  0  0
  8 11  1  0  0  0  0
  8 12  1  0  0  0  0
  8 13  1  0  0  0  0
  1 14  1  0  0  0  0
  2 15  1  0  0  0  0
  3 16  1  0  0  0  0
  4 17  1  0  0  0  0
 10 18  1  0  0  0  0
 11 19  1  0  0  0  0
 11 20  1  0  0  0  0
 12 21  1  0  0  0  0
 12 22  1  0  0  0  0
 13 23  1  0  0  0  0
M  CHG  1   8   1
M  END
> <MM Szybki Single Point Energy>
-266.597305479771

> <MM Szybki SD Energy>
-273.679403818895

> <QM Psi4 Final Opt. Energy (Har) mp2/def2-sv(p)>
-582.156839401

> <QM Psi4 Opt. Runtime (sec) mp2/def2-sv(p)>
1688.0

> <Original omega conformer number>
1

> <QM Psi4 Opt. Steps mp2/def2-sv(p)>
8

> <QM Psi4 Initial Opt. Energy (Har) mp2/def2-sv(p)>
-582.148922081

> <QM Psi4 Final Opt. Energy (Har) b3lyp-d3mbj/def2-tzvp>
-584.727674216

> <QM Psi4 Opt. Runtime (sec) b3lyp-d3mbj/def2-tzvp>
2168.0

> <QM Psi4 Opt. Steps b3lyp-d3mbj/def2-tzvp>
6

> <QM Psi4 Initial Opt. Energy (Har) b3lyp-d3mbj/def2-tzvp>
-584.725651549

$$$$
Div_6
  -OEChem-03131713003D

 13 12  0     0  0  0  0  0  0999 V2000
    1.9232    0.3164    1.1719 C   0  0  0  0  0  0  0  0  0  0  0  0
    0.0073   -1.6214   -0.7752 C   0  0  0  0  0  0  0  0  0  0  0  0
    0.4679    0.2582    1.1718 N   0  0  0  0  0  0  0  0  0  0  0  0
    0.1855    0.9322   -1.1971 O   0  0  0  0  0  0  0  0  0  0  0  0
   -1.7571    0.0633    0.1412 O   0  0  0  0  0  0  0  0  0  0  0  0
   -0.3680    0.0341   -0.2223 S   0  0  0  0  0  0  0  0  0  0  0  0
    2.2433    0.9174    0.3239 H   0  0  0  0  0  0  0  0  0  0  0  0
    2.3958   -0.6697    1.1121 H   0  0  0  0  0  0  0  0  0  0  0  0
    2.2540    0.8095    2.0850 H   0  0  0  0  0  0  0  0  0  0  0  0
   -0.5131   -1.7662   -1.7201 H   0  0  0  0  0  0  0  0  0  0  0  0
    1.0809   -1.7139   -0.9262 H   0  0  0  0  0  0  0  0  0  0  0  0
   -0.3502   -2.3337   -0.0349 H   0  0  0  0  0  0  0  0  0  0  0  0
    0.0184   -0.1727    1.9667 H   0  0  0  0  0  0  0  0  0  0  0  0
  1  3  1  0  0  0  0
  2  6  1  0  0  0  0
  3  6  1  0  0  0  0
  4  6  2  0  0  0  0
  5  6  2  0  0  0  0
  1  7  1  0  0  0  0
  1  8  1  0  0  0  0
  1  9  1  0  0  0  0
  2 10  1  0  0  0  0
  2 11  1  0  0  0  0
  2 12  1  0  0  0  0
  3 13  1  0  0  0  0
M  END
> <MM Szybki Single Point Energy>
-84.694829865140

> <MM Szybki SD Energy>
-87.235603459659

> <QM Psi4 Final Opt. Energy (Har) mp2/def2-sv(p)>
-681.972340687

> <QM Psi4 Opt. Runtime (sec) mp2/def2-sv(p)>
234.0

> <Original omega conformer number>
1

> <QM Psi4 Opt. Steps mp2/def2-sv(p)>
8

> <QM Psi4 Initial Opt. Energy (Har) mp2/def2-sv(p)>
-681.968572473

> <QM Psi4 Final Opt. Energy (Har) b3lyp-d3mbj/def2-tzvp>
-683.976148409

> <QM Psi4 Opt. Runtime (sec) b3lyp-d3mbj/def2-tzvp>
618.0

> <QM Psi4 Opt. Steps b3lyp-d3mbj/def2-tzvp>
7

> <QM Psi4 Initial Opt. Energy (Har) b3lyp-d3mbj/def2-tzvp>
-683.974275074

$$$$
Div_6
  -OEChem-03131713003D

 13 12  0     0  0  0  0  0  0999 V2000
    0.3515   -2.1234    0.7348 C   0  0  0  0  0  0  0  0  0  0  0  0
   -0.5144   -0.0181   -1.7220 C   0  0  0  0  0  0  0  0  0  0  0  0
    0.8823   -0.7853    0.5134 N   0  0  0  0  0  0  0  0  0  0  0  0
    0.7547    1.5904   -0.1115 O   0  0  0  0  0  0  0  0  0  0  0  0
   -1.2912    0.3891    0.7196 O   0  0  0  0  0  0  0  0  0  0  0  0
   -0.0774    0.4215   -0.0478 S   0  0  0  0  0  0  0  0  0  0  0  0
   -0.6235   -2.0325    1.2079 H   0  0  0  0  0  0  0  0  0  0  0  0
    1.0143   -2.6549    1.4163 H   0  0  0  0  0  0  0  0  0  0  0  0
    0.2508   -2.7069   -0.1864 H   0  0  0  0  0  0  0  0  0  0  0  0
   -1.1823    0.7582   -2.0901 H   0  0  0  0  0  0  0  0  0  0  0  0
    0.3886   -0.0567   -2.3272 H   0  0  0  0  0  0  0  0  0  0  0  0
   -1.0285   -0.9771   -1.7179 H   0  0  0  0  0  0  0  0  0  0  0  0
    1.8334   -0.7097    0.1825 H   0  0  0  0  0  0  0  0  0  0  0  0
  1  3  1  0  0  0  0
  2  6  1  0  0  0  0
  3  6  1  0  0  0  0
  4  6  2  0  0  0  0
  5  6  2  0  0  0  0
  1  7  1  0  0  0  0
  1  8  1  0  0  0  0
  1  9  1  0  0  0  0
  2 10  1  0  0  0  0
  2 11  1  0  0  0  0
  2 12  1  0  0  0  0
  3 13  1  0  0  0  0
M  END
> <MM Szybki Single Point Energy>
-84.658233149481

> <MM Szybki SD Energy>
-87.236433563456

> <QM Psi4 Final Opt. Energy (Har) mp2/def2-sv(p)>
-681.972340687

> <QM Psi4 Opt. Runtime (sec) mp2/def2-sv(p)>
229.0

> <Original omega conformer number>
2

> <QM Psi4 Opt. Steps mp2/def2-sv(p)>
8

> <QM Psi4 Initial Opt. Energy (Har) mp2/def2-sv(p)>
-681.968574604

> <QM Psi4 Final Opt. Energy (Har) b3lyp-d3mbj/def2-tzvp>
-683.976148414

> <QM Psi4 Opt. Runtime (sec) b3lyp-d3mbj/def2-tzvp>
635.0

> <QM Psi4 Opt. Steps b3lyp-d3mbj/def2-tzvp>
7

> <QM Psi4 Initial Opt. Energy (Har) b3lyp-d3mbj/def2-tzvp>
-683.974273196

$$$$
Div_6
  -OEChem-03131713003D

 13 12  0     0  0  0  0  0  0999 V2000
    1.7101   -1.0657    1.0654 C   0  0  0  0  0  0  0  0  0  0  0  0
   -0.0627   -0.0384   -1.8446 C   0  0  0  0  0  0  0  0  0  0  0  0
    0.3296   -1.1060    0.5843 N   0  0  0  0  0  0  0  0  0  0  0  0
    0.4701    1.4043    0.2471 O   0  0  0  0  0  0  0  0  0  0  0  0
   -1.7293    0.2010    0.1566 O   0  0  0  0  0  0  0  0  0  0  0  0
   -0.3160    0.2521   -0.1093 S   0  0  0  0  0  0  0  0  0  0  0  0
    2.3778   -0.8300    0.2382 H   0  0  0  0  0  0  0  0  0  0  0  0
    1.9666   -2.0580    1.4337 H   0  0  0  0  0  0  0  0  0  0  0  0
    1.8649   -0.3280    1.8542 H   0  0  0  0  0  0  0  0  0  0  0  0
   -0.4316    0.8418   -2.3678 H   0  0  0  0  0  0  0  0  0  0  0  0
    1.0017   -0.1647   -2.0303 H   0  0  0  0  0  0  0  0  0  0  0  0
   -0.6192   -0.9252   -2.1348 H   0  0  0  0  0  0  0  0  0  0  0  0
   -0.3446   -1.4995    1.2273 H   0  0  0  0  0  0  0  0  0  0  0  0
  1  3  1  0  0  0  0
  2  6  1  0  0  0  0
  3  6  1  0  0  0  0
  4  6  2  0  0  0  0
  5  6  2  0  0  0  0
  1  7  1  0  0  0  0
  1  8  1  0  0  0  0
  1  9  1  0  0  0  0
  2 10  1  0  0  0  0
  2 11  1  0  0  0  0
  2 12  1  0  0  0  0
  3 13  1  0  0  0  0
M  END
> <MM Szybki Single Point Energy>
-81.689168631704

> <MM Szybki SD Energy>
-84.721022353613

> <QM Psi4 Final Opt. Energy (Har) mp2/def2-sv(p)>
-681.97437199

> <QM Psi4 Opt. Runtime (sec) mp2/def2-sv(p)>
1403.0

> <Original omega conformer number>
3

> <QM Psi4 Opt. Steps mp2/def2-sv(p)>
38

> <QM Psi4 Initial Opt. Energy (Har) mp2/def2-sv(p)>
-681.96845179

> <QM Psi4 Final Opt. Energy (Har) b3lyp-d3mbj/def2-tzvp>
-683.976585023

> <QM Psi4 Opt. Runtime (sec) b3lyp-d3mbj/def2-tzvp>
615.0

> <QM Psi4 Opt. Steps b3lyp-d3mbj/def2-tzvp>
7

> <QM Psi4 Initial Opt. Energy (Har) b3lyp-d3mbj/def2-tzvp>
-683.974710648

$$$$
Div_6
  -OEChem-03131713003D

 13 12  0     0  0  0  0  0  0999 V2000
    0.4676    0.6436    2.1357 C   0  0  0  0  0  0  0  0  0  0  0  0
   -0.1369   -1.8017   -0.3767 C   0  0  0  0  0  0  0  0  0  0  0  0
    0.9625    0.3473    0.7917 N   0  0  0  0  0  0  0  0  0  0  0  0
    0.4676    0.4108   -1.6335 O   0  0  0  0  0  0  0  0  0  0  0  0
   -1.4440    0.4112   -0.0092 O   0  0  0  0  0  0  0  0  0  0  0  0
   -0.1282   -0.0243   -0.3980 S   0  0  0  0  0  0  0  0  0  0  0  0
   -0.0822   -0.2144    2.5192 H   0  0  0  0  0  0  0  0  0  0  0  0
   -0.1886    1.5147    2.1656 H   0  0  0  0  0  0  0  0  0  0  0  0
    1.3285    0.8087    2.7819 H   0  0  0  0  0  0  0  0  0  0  0  0
   -0.8696   -2.1213   -1.1154 H   0  0  0  0  0  0  0  0  0  0  0  0
    0.8564   -2.1587   -0.6342 H   0  0  0  0  0  0  0  0  0  0  0  0
   -0.4318   -2.1420    0.6136 H   0  0  0  0  0  0  0  0  0  0  0  0
    1.6404    1.0014    0.4235 H   0  0  0  0  0  0  0  0  0  0  0  0
  1  3  1  0  0  0  0
  2  6  1  0  0  0  0
  3  6  1  0  0  0  0
  4  6  2  0  0  0  0
  5  6  2  0  0  0  0
  1  7  1  0  0  0  0
  1  8  1  0  0  0  0
  1  9  1  0  0  0  0
  2 10  1  0  0  0  0
  2 11  1  0  0  0  0
  2 12  1  0  0  0  0
  3 13  1  0  0  0  0
M  END
> <MM Szybki Single Point Energy>
-81.628050233931

> <MM Szybki SD Energy>
-84.719412811115

> <QM Psi4 Final Opt. Energy (Har) mp2/def2-sv(p)>
-681.97437304

> <QM Psi4 Opt. Runtime (sec) mp2/def2-sv(p)>
927.0

> <Original omega conformer number>
4

> <QM Psi4 Opt. Steps mp2/def2-sv(p)>
25

> <QM Psi4 Initial Opt. Energy (Har) mp2/def2-sv(p)>
-681.96842566

> <QM Psi4 Final Opt. Energy (Har) b3lyp-d3mbj/def2-tzvp>
-683.976585497

> <QM Psi4 Opt. Runtime (sec) b3lyp-d3mbj/def2-tzvp>
694.0

> <QM Psi4 Opt. Steps b3lyp-d3mbj/def2-tzvp>
7

> <QM Psi4 Initial Opt. Energy (Har) b3lyp-d3mbj/def2-tzvp>
-683.974720213

$$$$
